
Transcript file has been opened in append mode. Time stamp=Thu Dec  5 14:47:21 2019.

Build Time: Apr 16 2019 10:49:06 
Executable Path: C:/PROGRA~1/ANSYSI~1/v194/fluent/ntbin/win64/fluent.exe

-------------------------------------------------------------------------------
ID    Hostname        Core  O.S.         PID   Vendor                   
-------------------------------------------------------------------------------
n0*   X-ARMS2106PC08  1/8  Windows-x64  3352  Intel(R) Xeon(R) E3-1240 
host  X-ARMS2106PC08       Windows-x64  9276  Intel(R) Xeon(R) E3-1240 

MPI Option Selected: ibmmpi
Selected system interconnect: default
-------------------------------------------------------------------------------
Warning: Ignoring WB preference save-post-processing-images
Multicore SMT processors detected. Processor affinity set!
Reading "W:\AAE412\Project\Git\ANSYS_Files\Combined_CFD_Post\Linux200000\NozzleC_Course.3.cas"...
Buffering for file scan...



  164400 quadrilateral cells, zone  3, binary.
Warning: reading 16 partition grid onto 1 compute node machine.
         Combining every 16 partitions.
  164400 cell partition ids, zone  3, 1 partitions, binary.
  326380 2D interior faces, zone  1, binary.
     410 2D interior faces, zone  2, binary.
    1680 2D wall faces, zone  6, binary.
      80 2D pressure-inlet faces, zone  7, binary.
    1680 2D axis faces, zone  8, binary.
     430 2D pressure-far-field faces, zone  9, binary.
     150 2D velocity-inlet faces, zone 10, binary.
  166411 nodes, binary.
166411 node flags, binary.

Building...
     mesh
     materials,
     interface,
     domains,
	mixture
     zones,
	axis
	nozzlewall
	surface_body
	interior-surface_body
	flowinlet
	farfield
	ambientinlet
	solid-surface_body
     parallel,
Done.

Preparing mesh for display...
Done.

Writing Settings file "W:\AAE412\Project\Git\ANSYS_Files\Combined_CFD_Post\Combined_CFD_Post_files\dp0\FFF-5\Fluent\NozzleC_Course.3.set"...
	writing rp variables ... Done.
	writing domain variables ... Done.
	writing solid-surface_body (type fluid) (mixture) ... Done.
	writing ambientinlet (type velocity-inlet) (mixture) ... Done.
	writing farfield (type pressure-far-field) (mixture) ... Done.
	writing flowinlet (type pressure-inlet) (mixture) ... Done.
	writing interior-surface_body (type interior) (mixture) ... Done.
	writing surface_body (type interior) (mixture) ... Done.
	writing nozzlewall (type wall) (mixture) ... Done.
	writing axis (type axis) (mixture) ... Done.
	writing zones map name-id ... Done.
Reading "W:\AAE412\Project\Git\ANSYS_Files\Combined_CFD_Post\Combined_CFD_Post_files\dp0\FFF-5\Fluent\NozzleC_Course.3.dat"...


Parallel variables...
Done.

  iter  continuity  x-velocity  y-velocity      energy           k     epsilon     time/iter
 264999  9.7803e-04  4.4803e-04  2.3308e-03  6.7518e-04  4.0915e-08  3.7485e-07  0:00:00 15001
0.
 265000  9.7173e-04  4.5084e-04  2.3284e-03  6.7170e-04  4.0888e-08  3.7387e-07  0:00:00 15000
0.
 265001  9.6535e-04  4.5399e-04  2.3267e-03  6.6808e-04  4.0861e-08  3.7293e-07  4:09:59 14999
0.
 265002  9.5844e-04  4.5732e-04  2.3248e-03  6.6391e-04  4.0834e-08  3.7195e-07  3:19:58 14998
0.
 265003  9.5198e-04  4.5761e-04  2.3231e-03  6.5998e-04  4.0811e-08  3.7090e-07  2:39:58 14997
0.
 265004  9.4575e-04  4.5631e-04  2.3219e-03  6.5614e-04  4.0790e-08  3.6983e-07  2:57:57 14996
0.
 265005  9.3952e-04  4.5554e-04  2.3205e-03  6.5235e-04  4.0766e-08  3.6872e-07  2:22:21 14995
0.
 265006  9.3363e-04  4.5548e-04  2.3187e-03  6.4887e-04  4.0741e-08  3.6754e-07  2:43:51 14994
0.
 265007  9.2822e-04  4.5633e-04  2.3158e-03  6.4578e-04  4.0717e-08  3.6632e-07  2:11:04 14993
0.
 265008  9.2335e-04  4.5869e-04  2.3131e-03  6.4315e-04  4.0693e-08  3.6505e-07  2:34:50 14992
0.
 265009  9.1910e-04  4.6298e-04  2.3103e-03  6.4106e-04  4.0670e-08  3.6386e-07  2:03:51 14991
0.

  iter  continuity  x-velocity  y-velocity      energy           k     epsilon     time/iter
 265010  9.1549e-04  4.6907e-04  2.3087e-03  6.3953e-04  4.0648e-08  3.6270e-07  2:29:03 14990
0.
 265011  9.1256e-04  4.7703e-04  2.3071e-03  6.3863e-04  4.0627e-08  3.6151e-07  1:59:14 14989
0.
 265012  9.1024e-04  4.8672e-04  2.3047e-03  6.3837e-04  4.0608e-08  3.6035e-07  1:35:22 14988
0.
 265013  9.0828e-04  4.9786e-04  2.3012e-03  6.3841e-04  4.0587e-08  3.5927e-07  2:06:15 14987
0.
 265014  9.0655e-04  5.0998e-04  2.2963e-03  6.3851e-04  4.0566e-08  3.5837e-07  1:41:00 14986
0.
 265015  9.0489e-04  5.2274e-04  2.2889e-03  6.3879e-04  4.0544e-08  3.5754e-07  2:10:44 14985
0.
 265016  9.0340e-04  5.3624e-04  2.2812e-03  6.3913e-04  4.0521e-08  3.5667e-07  1:44:35 14984
0.
 265017  9.0220e-04  5.5004e-04  2.2713e-03  6.3959e-04  4.0503e-08  3.5585e-07  2:13:36 14983
0.
 265018  9.0141e-04  5.6541e-04  2.2626e-03  6.4038e-04  4.0487e-08  3.5501e-07  1:46:53 14982
0.
 265019  9.0055e-04  5.8699e-04  2.2568e-03  6.4103e-04  4.0472e-08  3.5427e-07  2:15:26 14981
0.
 265020  9.0072e-04  6.0985e-04  2.2548e-03  6.4290e-04  4.0454e-08  3.5356e-07  1:48:20 14980
0.

  iter  continuity  x-velocity  y-velocity      energy           k     epsilon     time/iter
 265021  9.0179e-04  6.3357e-04  2.2569e-03  6.4568e-04  4.0437e-08  3.5282e-07  1:26:40 14979
0.
 265022  9.0800e-04  6.6894e-04  2.2602e-03  6.5558e-04  4.0421e-08  3.5211e-07  1:59:15 14978
0.
 265023  9.2575e-04  7.1895e-04  2.2633e-03  6.7960e-04  4.0404e-08  3.5155e-07  1:35:24 14977
0.
 265024  9.5040e-04  7.7227e-04  2.2706e-03  7.0883e-04  4.0387e-08  3.5102e-07  2:06:14 14976
0.
 265025  9.7028e-04  8.2522e-04  2.2794e-03  7.3245e-04  4.0368e-08  3.5052e-07  1:40:59 14975
0.
 265026  9.9213e-04  8.7725e-04  2.2904e-03  7.5734e-04  4.0348e-08  3.5010e-07  2:10:41 14974
0.
 265027  1.0150e-03  9.2783e-04  2.3068e-03  7.8141e-04  4.0327e-08  3.4965e-07  1:44:33 14973
0.
 265028  1.0378e-03  9.7502e-04  2.3281e-03  8.0425e-04  4.0307e-08  3.4918e-07  1:23:38 14972
0.
 265029  1.0565e-03  1.0149e-03  2.3537e-03  8.2287e-04  4.0286e-08  3.4879e-07  1:56:48 14971
0.
 265030  1.0474e-03  1.0013e-03  2.3817e-03  8.1096e-04  4.0267e-08  3.4844e-07  1:33:26 14970
0.
 265031  1.0289e-03  9.7360e-04  2.4085e-03  7.8986e-04  4.0258e-08  3.4810e-07  2:04:38 14969
0.

  iter  continuity  x-velocity  y-velocity      energy           k     epsilon     time/iter
 265032  1.0230e-03  9.8017e-04  2.4345e-03  7.8653e-04  4.0249e-08  3.4783e-07  1:39:42 14968
0.
 265033  1.0288e-03  1.0074e-03  2.4631e-03  7.9802e-04  4.0237e-08  3.4762e-07  2:09:39 14967
0.
 265034  1.0336e-03  1.0190e-03  2.4998e-03  8.0609e-04  4.0224e-08  3.4742e-07  1:43:43 14966
0.
 265035  1.0286e-03  9.9230e-04  2.5503e-03  8.0054e-04  4.0208e-08  3.4720e-07  1:22:58 14965
0.
 265036  1.0126e-03  9.4954e-04  2.6108e-03  7.8238e-04  4.0189e-08  3.4691e-07  1:56:15 14964
0.
 265037  9.8160e-04  8.8484e-04  2.6770e-03  7.4851e-04  4.0169e-08  3.4665e-07  1:32:59 14963
0.
 265038  9.4405e-04  8.0645e-04  2.7381e-03  7.0920e-04  4.0146e-08  3.4637e-07  2:04:16 14962
0.
 265039  9.1133e-04  7.2968e-04  2.7842e-03  6.7642e-04  4.0121e-08  3.4607e-07  1:39:24 14961
0.
 265040  8.8858e-04  6.6436e-04  2.8107e-03  6.5214e-04  4.0099e-08  3.4576e-07  2:09:23 14960
0.
 265041  8.7258e-04  6.1290e-04  2.8311e-03  6.3337e-04  4.0080e-08  3.4563e-07  1:43:30 14959
0.
 265042  8.6183e-04  5.8010e-04  2.8373e-03  6.2240e-04  4.0064e-08  3.4548e-07  1:22:48 14958
0.

  iter  continuity  x-velocity  y-velocity      energy           k     epsilon     time/iter
 265043  8.5781e-04  5.6499e-04  2.8274e-03  6.1908e-04  4.0047e-08  3.4531e-07  1:56:05 14957
0.
 265044  8.6092e-04  5.6502e-04  2.8053e-03  6.2342e-04  4.0033e-08  3.4506e-07  1:32:52 14956
0.
 265045  8.6947e-04  5.7836e-04  2.7745e-03  6.3279e-04  4.0016e-08  3.4479e-07  2:04:08 14955
0.
 265046  8.8314e-04  6.0288e-04  2.7386e-03  6.4688e-04  3.9994e-08  3.4460e-07  1:39:18 14954
0.
 265047  9.0107e-04  6.3695e-04  2.7036e-03  6.6481e-04  3.9977e-08  3.4437e-07  2:09:17 14953
0.
 265048  9.2299e-04  6.7882e-04  2.6723e-03  6.8704e-04  3.9964e-08  3.4409e-07  1:43:25 14952
0.
 265049  9.4855e-04  7.2752e-04  2.6489e-03  7.1256e-04  3.9953e-08  3.4381e-07  1:22:44 14951
0.
 265050  9.7727e-04  7.8186e-04  2.6339e-03  7.4033e-04  3.9939e-08  3.4366e-07  1:56:01 14950
0.
 265051  1.0087e-03  8.4047e-04  2.6281e-03  7.6976e-04  3.9921e-08  3.4348e-07  1:32:48 14949
0.
 265052  1.0438e-03  9.0261e-04  2.6352e-03  8.0187e-04  3.9901e-08  3.4323e-07  2:04:04 14948
0.
 265053  1.0826e-03  9.6714e-04  2.6526e-03  8.3645e-04  3.9886e-08  3.4299e-07  1:39:15 14947
0.

  iter  continuity  x-velocity  y-velocity      energy           k     epsilon     time/iter
 265054  1.1502e-03  1.0783e-03  2.6743e-03  9.0076e-04  3.9877e-08  3.4293e-07  2:09:13 14946
0.
 265055  1.2255e-03  1.2405e-03  2.7131e-03  9.7438e-04  3.9875e-08  3.4293e-07  1:43:22 14945
0.
 265056  1.3039e-03  1.3990e-03  2.7605e-03  1.0518e-03  3.9877e-08  3.4289e-07  2:12:30 14944
0.
 265057  1.3949e-03  1.5635e-03  2.8333e-03  1.1404e-03  3.9877e-08  3.4283e-07  1:45:59 14943
0.
 265058  1.4108e-03  1.5981e-03  2.9214e-03  1.1507e-03  3.9872e-08  3.4277e-07  1:24:47 14942
0.
 265059  1.4402e-03  1.6387e-03  3.0327e-03  1.1737e-03  3.9864e-08  3.4261e-07  1:57:38 14941
0.
 265060  1.4563e-03  1.6526e-03  3.1665e-03  1.1857e-03  3.9851e-08  3.4245e-07  1:34:06 14940
0.
 265061  1.3951e-03  1.5385e-03  3.3062e-03  1.1177e-03  3.9837e-08  3.4226e-07  2:05:04 14939
0.
 265062  1.3679e-03  1.4370e-03  3.4399e-03  1.0889e-03  3.9821e-08  3.4209e-07  2:29:50 14938
0.
 265063  1.3297e-03  1.3208e-03  3.5509e-03  1.0447e-03  3.9806e-08  3.4194e-07  1:59:52 14937
0.
 265064  1.2814e-03  1.1882e-03  3.6295e-03  9.8705e-04  3.9790e-08  3.4182e-07  1:35:53 14936
0.

  iter  continuity  x-velocity  y-velocity      energy           k     epsilon     time/iter
 265065  1.2345e-03  1.0519e-03  3.6896e-03  9.2545e-04  3.9769e-08  3.4163e-07  2:06:29 14935
0.
 265066  1.2008e-03  9.2731e-04  3.7078e-03  8.7817e-04  3.9750e-08  3.4142e-07  1:41:11 14934
0.
 265067  1.1843e-03  8.3163e-04  3.7119e-03  8.4740e-04  3.9733e-08  3.4129e-07  2:10:43 14933
0.
 265068  1.1884e-03  7.7570e-04  3.7019e-03  8.4419e-04  3.9720e-08  3.4127e-07  1:44:34 14932
0.
 265069  1.2020e-03  7.5544e-04  3.6925e-03  8.5523e-04  3.9711e-08  3.4131e-07  2:13:25 14931
0.
 265070  1.2192e-03  7.6148e-04  3.6841e-03  8.7142e-04  3.9697e-08  3.4139e-07  1:46:44 14930
0.
 265071  1.2428e-03  7.8441e-04  3.6573e-03  8.9374e-04  3.9686e-08  3.4153e-07  1:25:23 14929
0.
 265072  1.2652e-03  8.0401e-04  3.6204e-03  9.1486e-04  3.9675e-08  3.4169e-07  1:58:03 14928
0.
 265073  1.2879e-03  8.2143e-04  3.5997e-03  9.3501e-04  3.9662e-08  3.4185e-07  1:34:26 14927
0.
 265074  1.3057e-03  8.3080e-04  3.5929e-03  9.4857e-04  3.9648e-08  3.4203e-07  2:05:18 14926
0.
 265075  1.3214e-03  8.3527e-04  3.5968e-03  9.5900e-04  3.9637e-08  3.4226e-07  1:40:14 14925
0.

  iter  continuity  x-velocity  y-velocity      energy           k     epsilon     time/iter
 265076  1.3346e-03  8.3461e-04  3.6014e-03  9.6614e-04  3.9628e-08  3.4250e-07  2:09:56 14924
0.
 265077  1.3458e-03  8.3040e-04  3.6187e-03  9.7161e-04  3.9618e-08  3.4275e-07  1:43:56 14923
0.
 265078  1.3633e-03  8.2884e-04  3.6462e-03  9.8309e-04  3.9610e-08  3.4308e-07  2:12:53 14922
0.
 265079  1.3868e-03  8.3294e-04  3.6841e-03  9.9953e-04  3.9602e-08  3.4338e-07  1:46:18 14921
0.
 265080  1.4115e-03  8.4045e-04  3.7284e-03  1.0165e-03  3.9590e-08  3.4370e-07  1:25:02 14920
0.
 265081  1.4360e-03  8.4775e-04  3.7793e-03  1.0328e-03  3.9579e-08  3.4401e-07  1:57:45 14919
0.
 265082  1.4596e-03  8.5370e-04  3.8276e-03  1.0482e-03  3.9572e-08  3.4444e-07  1:34:12 14918
0.
 265083  1.4835e-03  8.5922e-04  3.8709e-03  1.0640e-03  3.9566e-08  3.4490e-07  2:05:04 14917
0.
 265084  1.5069e-03  8.6448e-04  3.9143e-03  1.0792e-03  3.9560e-08  3.4532e-07  1:40:03 14916
0.
 265085  1.5297e-03  8.6999e-04  3.9547e-03  1.0937e-03  3.9559e-08  3.4575e-07  2:09:45 14915
0.
 265086  1.5483e-03  8.7524e-04  3.9880e-03  1.1045e-03  3.9560e-08  3.4617e-07  1:43:48 14914
0.

  iter  continuity  x-velocity  y-velocity      energy           k     epsilon     time/iter
 265087  1.5666e-03  8.8235e-04  4.0198e-03  1.1159e-03  3.9561e-08  3.4664e-07  1:23:02 14913
0.
 265088  1.5843e-03  8.8817e-04  4.0493e-03  1.1274e-03  3.9558e-08  3.4713e-07  1:56:08 14912
0.
 265089  1.6009e-03  8.9232e-04  4.0760e-03  1.1382e-03  3.9553e-08  3.4757e-07  1:32:54 14911
0.
 265090  1.6169e-03  8.9461e-04  4.1019e-03  1.1482e-03  3.9548e-08  3.4796e-07  2:04:01 14910
0.
 265091  1.6320e-03  8.9216e-04  4.1311e-03  1.1569e-03  3.9545e-08  3.4838e-07  1:39:12 14909
0.
 265092  1.6468e-03  8.8806e-04  4.1681e-03  1.1651e-03  3.9546e-08  3.4877e-07  2:09:03 14908
0.
 265093  1.6613e-03  8.8448e-04  4.2200e-03  1.1731e-03  3.9546e-08  3.4917e-07  1:43:14 14907
0.
 265094  1.6760e-03  8.8237e-04  4.2926e-03  1.1814e-03  3.9548e-08  3.4959e-07  1:22:35 14906
0.
 265095  1.6908e-03  8.8207e-04  4.3748e-03  1.1896e-03  3.9549e-08  3.5011e-07  1:55:45 14905
0.
 265096  1.7051e-03  8.8316e-04  4.4508e-03  1.1978e-03  3.9549e-08  3.5071e-07  1:32:35 14904
0.
 265097  1.7228e-03  8.9601e-04  4.5267e-03  1.2105e-03  3.9550e-08  3.5137e-07  2:03:45 14903
0.

  iter  continuity  x-velocity  y-velocity      energy           k     epsilon     time/iter
 265098  1.7397e-03  9.1011e-04  4.6049e-03  1.2229e-03  3.9549e-08  3.5220e-07  1:38:59 14902
0.
 265099  1.7548e-03  9.2319e-04  4.6794e-03  1.2338e-03  3.9550e-08  3.5306e-07  2:08:51 14901
0.
 265100  1.7674e-03  9.3378e-04  4.7497e-03  1.2425e-03  3.9552e-08  3.5395e-07  1:43:05 14900
0.
 265101  1.7729e-03  9.4099e-04  4.8178e-03  1.2448e-03  3.9558e-08  3.5484e-07  2:12:07 14899
0.
 265102  1.7741e-03  9.4351e-04  4.8753e-03  1.2437e-03  3.9564e-08  3.5572e-07  1:45:41 14898
0.
 265103  1.7746e-03  9.4176e-04  4.9213e-03  1.2427e-03  3.9567e-08  3.5657e-07  1:24:33 14897
0.
 265104  1.7720e-03  9.3706e-04  4.9757e-03  1.2389e-03  3.9568e-08  3.5737e-07  1:57:17 14896
0.
 265105  1.7699e-03  9.3264e-04  5.0138e-03  1.2365e-03  3.9571e-08  3.5824e-07  1:33:49 14895
0.
 265106  1.7683e-03  9.2906e-04  5.0275e-03  1.2353e-03  3.9573e-08  3.5907e-07  2:04:42 14894
0.
 265107  1.7677e-03  9.2669e-04  5.0157e-03  1.2354e-03  3.9572e-08  3.5986e-07  1:39:45 14893
0.
 265108  1.7684e-03  9.2593e-04  4.9910e-03  1.2371e-03  3.9573e-08  3.6055e-07  2:09:26 14892
0.

  iter  continuity  x-velocity  y-velocity      energy           k     epsilon     time/iter
 265109  1.7685e-03  9.2548e-04  4.9739e-03  1.2384e-03  3.9577e-08  3.6121e-07  1:43:33 14891
0.
 265110  1.7641e-03  9.2414e-04  4.9479e-03  1.2352e-03  3.9583e-08  3.6175e-07  2:12:28 14890
0.
 265111  1.7606e-03  9.2367e-04  4.9084e-03  1.2332e-03  3.9587e-08  3.6218e-07  1:45:58 14889
0.
 265112  1.7575e-03  9.2404e-04  4.8565e-03  1.2316e-03  3.9589e-08  3.6245e-07  1:24:46 14888
0.
 265113  1.7540e-03  9.2509e-04  4.8092e-03  1.2297e-03  3.9591e-08  3.6296e-07  1:57:26 14887
0.
 265114  1.7505e-03  9.2694e-04  4.7598e-03  1.2278e-03  3.9591e-08  3.6365e-07  1:33:56 14886
0.
 265115  1.7467e-03  9.2966e-04  4.7112e-03  1.2258e-03  3.9589e-08  3.6449e-07  2:04:46 14885
0.
 265116  1.7429e-03  9.3505e-04  4.6569e-03  1.2236e-03  3.9589e-08  3.6541e-07  1:39:48 14884
0.
 265117  1.7392e-03  9.4519e-04  4.5984e-03  1.2217e-03  3.9590e-08  3.6630e-07  2:09:27 14883
0.
 265118  1.7375e-03  9.6503e-04  4.5529e-03  1.2232e-03  3.9588e-08  3.6707e-07  1:43:33 14882
0.
 265119  1.7381e-03  9.9083e-04  4.5091e-03  1.2274e-03  3.9586e-08  3.6769e-07  2:12:26 14881
0.

  iter  continuity  x-velocity  y-velocity      energy           k     epsilon     time/iter
 265120  1.7406e-03  1.0216e-03  4.4645e-03  1.2335e-03  3.9586e-08  3.6819e-07  1:45:57 14880
0.
 265121  1.7404e-03  1.0415e-03  4.4271e-03  1.2357e-03  3.9586e-08  3.6850e-07  1:24:45 14879
0.
 265122  1.7370e-03  1.0512e-03  4.3966e-03  1.2335e-03  3.9589e-08  3.6860e-07  1:57:23 14878
0.
 265123  1.7303e-03  1.0544e-03  4.3656e-03  1.2274e-03  3.9592e-08  3.6855e-07  1:33:54 14877
0.
 265124  1.7208e-03  1.0537e-03  4.3317e-03  1.2190e-03  3.9599e-08  3.6854e-07  2:04:42 14876
0.
 265125  1.7131e-03  1.0651e-03  4.2944e-03  1.2141e-03  3.9607e-08  3.6861e-07  1:39:45 14875
0.
 265126  1.7073e-03  1.0850e-03  4.2546e-03  1.2123e-03  3.9614e-08  3.6871e-07  2:09:23 14874
0.
 265127  1.7021e-03  1.1061e-03  4.2151e-03  1.2115e-03  3.9618e-08  3.6872e-07  1:43:30 14873
0.
 265128  1.6930e-03  1.1200e-03  4.1779e-03  1.2061e-03  3.9621e-08  3.6860e-07  1:22:48 14872
0.
 265129  1.6787e-03  1.1195e-03  4.1441e-03  1.1940e-03  3.9619e-08  3.6847e-07  1:55:48 14871
0.
 265130  1.6597e-03  1.1026e-03  4.1154e-03  1.1769e-03  3.9618e-08  3.6820e-07  1:32:38 14870
0.

  iter  continuity  x-velocity  y-velocity      energy           k     epsilon     time/iter
 265131  1.6341e-03  1.0673e-03  4.0919e-03  1.1533e-03  3.9616e-08  3.6783e-07  2:03:40 14869
0.
 265132  1.6030e-03  1.0155e-03  4.0691e-03  1.1233e-03  3.9610e-08  3.6737e-07  1:38:56 14868
0.
 265133  1.5727e-03  9.6520e-04  4.0464e-03  1.0956e-03  3.9598e-08  3.6704e-07  2:08:41 14867
0.
 265134  1.5467e-03  9.2106e-04  4.0256e-03  1.0732e-03  3.9580e-08  3.6673e-07  1:42:57 14866
0.
 265135  1.5234e-03  8.8461e-04  4.0052e-03  1.0534e-03  3.9563e-08  3.6635e-07  1:22:21 14865
0.
 265136  1.5017e-03  8.5616e-04  3.9855e-03  1.0354e-03  3.9547e-08  3.6607e-07  1:55:25 14864
0.
 265137  1.4814e-03  8.3499e-04  3.9672e-03  1.0200e-03  3.9530e-08  3.6593e-07  1:32:20 14863
0.
 265138  1.4616e-03  8.1947e-04  3.9506e-03  1.0057e-03  3.9512e-08  3.6584e-07  2:03:24 14862
0.
 265139  1.4418e-03  8.0917e-04  3.9340e-03  9.9176e-04  3.9499e-08  3.6578e-07  1:38:43 14861
0.
 265140  1.4230e-03  8.0404e-04  3.9156e-03  9.7927e-04  3.9487e-08  3.6568e-07  2:08:30 14860
0.
 265141  1.4052e-03  8.0310e-04  3.8951e-03  9.6822e-04  3.9477e-08  3.6545e-07  1:42:48 14859
0.

  iter  continuity  x-velocity  y-velocity      energy           k     epsilon     time/iter
 265142  1.3884e-03  8.0523e-04  3.8692e-03  9.5833e-04  3.9467e-08  3.6502e-07  2:11:45 14858
0.
 265143  1.3718e-03  8.1006e-04  3.8392e-03  9.4885e-04  3.9456e-08  3.6456e-07  1:45:24 14857
0.
 265144  1.3559e-03  8.1770e-04  3.8080e-03  9.4021e-04  3.9444e-08  3.6418e-07  1:24:19 14856
0.
 265145  1.3397e-03  8.2163e-04  3.7767e-03  9.3175e-04  3.9433e-08  3.6380e-07  1:56:58 14855
0.
 265146  1.3217e-03  8.2210e-04  3.7445e-03  9.2050e-04  3.9420e-08  3.6326e-07  1:33:34 14854
0.
 265147  1.3030e-03  8.1997e-04  3.7118e-03  9.0775e-04  3.9402e-08  3.6263e-07  2:04:21 14853
0.
 265148  1.2834e-03  8.1609e-04  3.6791e-03  8.9405e-04  3.9384e-08  3.6199e-07  1:39:29 14852
0.
 265149  1.2634e-03  8.1113e-04  3.6468e-03  8.8000e-04  3.9369e-08  3.6130e-07  2:09:05 14851
0.
 265150  1.2436e-03  8.0551e-04  3.6145e-03  8.6593e-04  3.9354e-08  3.6074e-07  1:43:15 14850
0.
 265151  1.2234e-03  7.9919e-04  3.5822e-03  8.5139e-04  3.9341e-08  3.6021e-07  1:22:36 14849
0.
 265152  1.2035e-03  7.9280e-04  3.5521e-03  8.3696e-04  3.9327e-08  3.5970e-07  1:55:34 14848
0.

  iter  continuity  x-velocity  y-velocity      energy           k     epsilon     time/iter
 265153  1.1845e-03  7.8617e-04  3.5232e-03  8.2320e-04  3.9311e-08  3.5930e-07  1:32:27 14847
0.
 265154  1.1663e-03  7.7939e-04  3.4964e-03  8.0999e-04  3.9293e-08  3.5895e-07  2:03:26 14846
0.
 265155  1.1489e-03  7.7263e-04  3.4718e-03  7.9740e-04  3.9279e-08  3.5854e-07  1:38:45 14845
0.
 265156  1.1324e-03  7.6600e-04  3.4490e-03  7.8559e-04  3.9264e-08  3.5822e-07  2:08:28 14844
0.
 265157  1.1168e-03  7.5967e-04  3.4273e-03  7.7438e-04  3.9250e-08  3.5785e-07  1:42:46 14843
0.
 265158  1.1021e-03  7.5354e-04  3.4073e-03  7.6385e-04  3.9235e-08  3.5735e-07  2:11:41 14842
0.
 265159  1.0882e-03  7.4771e-04  3.3871e-03  7.5381e-04  3.9220e-08  3.5700e-07  1:45:20 14841
0.
 265160  1.0748e-03  7.4207e-04  3.3664e-03  7.4399e-04  3.9205e-08  3.5669e-07  1:24:16 14840
0.
 265161  1.0619e-03  7.3649e-04  3.3462e-03  7.3454e-04  3.9199e-08  3.5637e-07  1:56:52 14839
0.
 265162  1.0495e-03  7.3113e-04  3.3264e-03  7.2535e-04  3.9196e-08  3.5605e-07  1:33:29 14838
0.
 265163  1.0376e-03  7.2605e-04  3.3065e-03  7.1644e-04  3.9189e-08  3.5584e-07  2:04:15 14837
0.

  iter  continuity  x-velocity  y-velocity      energy           k     epsilon     time/iter
 265164  1.0265e-03  7.2128e-04  3.2862e-03  7.0824e-04  3.9182e-08  3.5576e-07  1:39:23 14836
0.
 265165  1.0163e-03  7.1680e-04  3.2651e-03  7.0069e-04  3.9178e-08  3.5566e-07  2:08:57 14835
0.
 265166  1.0068e-03  7.1224e-04  3.2441e-03  6.9368e-04  3.9173e-08  3.5548e-07  1:43:09 14834
0.
 265167  9.9805e-04  7.0643e-04  3.2239e-03  6.8693e-04  3.9168e-08  3.5523e-07  2:11:58 14833
0.
 265168  9.9007e-04  7.0126e-04  3.2050e-03  6.8087e-04  3.9162e-08  3.5498e-07  1:45:34 14832
0.
 265169  9.8326e-04  6.9705e-04  3.1867e-03  6.7591e-04  3.9160e-08  3.5485e-07  1:24:27 14831
0.
 265170  9.7743e-04  6.9373e-04  3.1689e-03  6.7185e-04  3.9156e-08  3.5496e-07  1:56:59 14830
0.
 265171  9.7236e-04  6.9107e-04  3.1510e-03  6.6846e-04  3.9155e-08  3.5521e-07  1:33:35 14829
0.
 265172  9.6792e-04  6.8888e-04  3.1339e-03  6.6557e-04  3.9154e-08  3.5548e-07  2:04:17 14828
0.
 265173  9.6435e-04  6.8678e-04  3.1173e-03  6.6341e-04  3.9157e-08  3.5569e-07  1:39:25 14827
0.
 265174  9.6126e-04  6.8490e-04  3.1022e-03  6.6160e-04  3.9158e-08  3.5590e-07  2:08:57 14826
0.

  iter  continuity  x-velocity  y-velocity      energy           k     epsilon     time/iter
 265175  9.5846e-04  6.8323e-04  3.0881e-03  6.5992e-04  3.9156e-08  3.5607e-07  1:43:09 14825
0.
 265176  9.5598e-04  6.8175e-04  3.0747e-03  6.5844e-04  3.9153e-08  3.5633e-07  2:11:56 14824
0.
 265177  9.5382e-04  6.8042e-04  3.0618e-03  6.5714e-04  3.9147e-08  3.5649e-07  1:45:32 14823
0.
 265178  9.5199e-04  6.7921e-04  3.0495e-03  6.5606e-04  3.9143e-08  3.5660e-07  1:24:26 14822
0.
 265179  9.5052e-04  6.7813e-04  3.0376e-03  6.5525e-04  3.9140e-08  3.5666e-07  1:56:56 14821
0.
 265180  9.4944e-04  6.7718e-04  3.0258e-03  6.5476e-04  3.9138e-08  3.5680e-07  1:33:33 14820
0.
 265181  9.4872e-04  6.7636e-04  3.0144e-03  6.5453e-04  3.9138e-08  3.5706e-07  2:04:14 14819
0.
 265182  9.4832e-04  6.7563e-04  3.0045e-03  6.5453e-04  3.9138e-08  3.5727e-07  1:39:23 14818
0.
 265183  9.4825e-04  6.7499e-04  2.9959e-03  6.5475e-04  3.9136e-08  3.5742e-07  2:08:53 14817
0.
 265184  9.4850e-04  6.7440e-04  2.9870e-03  6.5514e-04  3.9133e-08  3.5755e-07  1:43:06 14816
0.
 265185  9.4902e-04  6.7388e-04  2.9774e-03  6.5568e-04  3.9128e-08  3.5770e-07  2:11:52 14815
0.

  iter  continuity  x-velocity  y-velocity      energy           k     epsilon     time/iter
 265186  9.4977e-04  6.7341e-04  2.9675e-03  6.5630e-04  3.9121e-08  3.5780e-07  1:45:29 14814
0.
 265187  9.5074e-04  6.7301e-04  2.9572e-03  6.5695e-04  3.9113e-08  3.5782e-07  2:13:45 14813
0.
 265188  9.5193e-04  6.7265e-04  2.9469e-03  6.5764e-04  3.9108e-08  3.5791e-07  1:47:00 14812
0.
 265189  9.5336e-04  6.7247e-04  2.9370e-03  6.5844e-04  3.9101e-08  3.5797e-07  2:14:58 14811
0.
 265190  9.5504e-04  6.7289e-04  2.9275e-03  6.5933e-04  3.9095e-08  3.5804e-07  1:47:58 14810
0.
 265191  9.5694e-04  6.7347e-04  2.9190e-03  6.6026e-04  3.9091e-08  3.5807e-07  1:26:22 14809
0.
 265192  9.5951e-04  6.7435e-04  2.9115e-03  6.6173e-04  3.9089e-08  3.5807e-07  1:58:27 14808
0.
 265193  9.6283e-04  6.7551e-04  2.9047e-03  6.6377e-04  3.9090e-08  3.5807e-07  1:34:45 14807
0.
 265194  9.6642e-04  6.7670e-04  2.8989e-03  6.6590e-04  3.9089e-08  3.5803e-07  2:05:09 14806
0.
 265195  9.7019e-04  6.7785e-04  2.8945e-03  6.6807e-04  3.9085e-08  3.5797e-07  1:40:07 14805
0.
 265196  9.7380e-04  6.7977e-04  2.8913e-03  6.7017e-04  3.9083e-08  3.5784e-07  2:09:26 14804
0.

  iter  continuity  x-velocity  y-velocity      energy           k     epsilon     time/iter
 265197  9.7778e-04  6.8338e-04  2.8888e-03  6.7306e-04  3.9083e-08  3.5768e-07  1:43:32 14803
0.
 265198  9.8265e-04  6.8720e-04  2.8870e-03  6.7667e-04  3.9080e-08  3.5749e-07  2:12:10 14802
0.
 265199  9.8802e-04  6.9098e-04  2.8863e-03  6.8053e-04  3.9077e-08  3.5726e-07  1:45:43 14801
0.
 265200  9.9365e-04  6.9455e-04  2.8870e-03  6.8444e-04  3.9072e-08  3.5699e-07  1:24:34 14800
0.
 265201  1.0005e-03  6.9748e-04  2.8892e-03  6.8938e-04  3.9070e-08  3.5668e-07  1:56:59 14799
0.
 265202  1.0073e-03  7.0042e-04  2.8928e-03  6.9405e-04  3.9071e-08  3.5640e-07  1:33:35 14798
0.
 265203  1.0137e-03  7.0326e-04  2.8985e-03  6.9810e-04  3.9074e-08  3.5606e-07  2:04:11 14797
0.
 265204  1.0199e-03  7.0592e-04  2.9048e-03  7.0193e-04  3.9077e-08  3.5582e-07  1:39:20 14796
0.
 265205  1.0249e-03  7.0850e-04  2.9112e-03  7.0462e-04  3.9077e-08  3.5560e-07  2:08:47 14795
0.
 265206  1.0297e-03  7.1112e-04  2.9171e-03  7.0730e-04  3.9076e-08  3.5538e-07  1:43:01 14794
0.
 265207  1.0345e-03  7.1389e-04  2.9223e-03  7.1008e-04  3.9073e-08  3.5509e-07  1:22:25 14793
0.

  iter  continuity  x-velocity  y-velocity      energy           k     epsilon     time/iter
 265208  1.0376e-03  7.1670e-04  2.9261e-03  7.1153e-04  3.9067e-08  3.5477e-07  1:55:14 14792
0.
 265209  1.0413e-03  7.2015e-04  2.9287e-03  7.1400e-04  3.9059e-08  3.5448e-07  2:21:29 14791
0.
 265210  1.0459e-03  7.2460e-04  2.9314e-03  7.1757e-04  3.9051e-08  3.5420e-07  1:53:11 14790
0.
 265211  1.0551e-03  7.3558e-04  2.9349e-03  7.2580e-04  3.9043e-08  3.5387e-07  1:30:32 14789
0.
 265212  1.0678e-03  7.5812e-04  2.9401e-03  7.3862e-04  3.9038e-08  3.5355e-07  2:01:43 14788
0.
 265213  1.0845e-03  7.9017e-04  2.9471e-03  7.5623e-04  3.9035e-08  3.5319e-07  1:37:22 14787
0.
 265214  1.1039e-03  8.2865e-04  2.9565e-03  7.7682e-04  3.9035e-08  3.5283e-07  2:07:11 14786
0.
 265215  1.1247e-03  8.7070e-04  2.9682e-03  7.9862e-04  3.9035e-08  3.5250e-07  1:41:44 14785
0.
 265216  1.1457e-03  9.1401e-04  2.9820e-03  8.1986e-04  3.9035e-08  3.5219e-07  2:10:40 14784
0.
 265217  1.1653e-03  9.5573e-04  2.9988e-03  8.3972e-04  3.9036e-08  3.5191e-07  1:44:31 14783
0.
 265218  1.1876e-03  9.9581e-04  3.0217e-03  8.6173e-04  3.9037e-08  3.5179e-07  1:23:37 14782
0.

  iter  continuity  x-velocity  y-velocity      energy           k     epsilon     time/iter
 265219  1.2080e-03  1.0317e-03  3.0499e-03  8.8078e-04  3.9036e-08  3.5179e-07  1:56:09 14781
0.
 265220  1.2178e-03  1.0436e-03  3.0790e-03  8.8866e-04  3.9033e-08  3.5193e-07  1:32:55 14780
0.
 265221  1.2101e-03  1.0155e-03  3.1049e-03  8.7664e-04  3.9029e-08  3.5217e-07  2:03:36 14779
0.
 265222  1.1974e-03  9.7746e-04  3.1238e-03  8.6000e-04  3.9025e-08  3.5240e-07  1:38:52 14778
0.
 265223  1.1810e-03  9.3100e-04  3.1348e-03  8.3993e-04  3.9022e-08  3.5266e-07  2:08:21 14777
0.
 265224  1.1606e-03  8.8037e-04  3.1380e-03  8.1608e-04  3.9022e-08  3.5302e-07  1:42:40 14776
0.
 265225  1.1418e-03  8.3446e-04  3.1345e-03  7.9435e-04  3.9024e-08  3.5343e-07  2:11:23 14775
0.
 265226  1.1293e-03  7.9858e-04  3.1292e-03  7.8026e-04  3.9025e-08  3.5395e-07  1:45:06 14774
0.
 265227  1.1237e-03  7.7326e-04  3.1271e-03  7.7356e-04  3.9027e-08  3.5450e-07  1:24:04 14773
0.
 265228  1.1236e-03  7.5857e-04  3.1322e-03  7.7218e-04  3.9027e-08  3.5513e-07  1:56:30 14772
0.
 265229  1.1259e-03  7.5242e-04  3.1405e-03  7.7406e-04  3.9024e-08  3.5585e-07  1:33:11 14771
0.

  iter  continuity  x-velocity  y-velocity      energy           k     epsilon     time/iter
 265230  1.1291e-03  7.5167e-04  3.1498e-03  7.7760e-04  3.9024e-08  3.5658e-07  2:03:47 14770
0.
 265231  1.1315e-03  7.5293e-04  3.1601e-03  7.8054e-04  3.9026e-08  3.5741e-07  1:39:01 14769
0.
 265232  1.1326e-03  7.5310e-04  3.1687e-03  7.8219e-04  3.9029e-08  3.5831e-07  2:08:26 14768
0.
 265233  1.1318e-03  7.5325e-04  3.1738e-03  7.8242e-04  3.9033e-08  3.5918e-07  1:42:44 14767
0.
 265234  1.1299e-03  7.5279e-04  3.1761e-03  7.8155e-04  3.9037e-08  3.6000e-07  2:11:24 14766
0.
 265235  1.1269e-03  7.5113e-04  3.1757e-03  7.7984e-04  3.9040e-08  3.6076e-07  1:45:07 14765
0.
 265236  1.1230e-03  7.4829e-04  3.1791e-03  7.7741e-04  3.9041e-08  3.6152e-07  1:24:05 14764
0.
 265237  1.1186e-03  7.4452e-04  3.1811e-03  7.7449e-04  3.9045e-08  3.6230e-07  1:56:29 14763
0.
 265238  1.1111e-03  7.3830e-04  3.1799e-03  7.6868e-04  3.9050e-08  3.6303e-07  1:33:10 14762
0.
 265239  1.1027e-03  7.3386e-04  3.1846e-03  7.6275e-04  3.9055e-08  3.6377e-07  2:03:44 14761
0.
 265240  1.0966e-03  7.3318e-04  3.1872e-03  7.5990e-04  3.9060e-08  3.6451e-07  1:38:59 14760
0.

  iter  continuity  x-velocity  y-velocity      energy           k     epsilon     time/iter
 265241  1.0921e-03  7.3290e-04  3.1867e-03  7.5870e-04  3.9067e-08  3.6521e-07  2:08:23 14759
0.
 265242  1.0876e-03  7.3063e-04  3.1832e-03  7.5670e-04  3.9076e-08  3.6591e-07  1:42:42 14758
0.
 265243  1.0834e-03  7.2722e-04  3.1812e-03  7.5470e-04  3.9086e-08  3.6662e-07  2:11:20 14757
0.
 265244  1.0788e-03  7.2343e-04  3.1884e-03  7.5200e-04  3.9095e-08  3.6720e-07  1:45:04 14756
0.
 265245  1.0738e-03  7.1926e-04  3.1940e-03  7.4887e-04  3.9100e-08  3.6772e-07  1:24:03 14755
0.
 265246  1.0694e-03  7.1555e-04  3.1967e-03  7.4582e-04  3.9104e-08  3.6817e-07  1:56:25 14754
0.
 265247  1.0651e-03  7.1215e-04  3.1961e-03  7.4298e-04  3.9106e-08  3.6848e-07  1:33:07 14753
0.
 265248  1.0608e-03  7.0896e-04  3.1919e-03  7.4007e-04  3.9108e-08  3.6868e-07  2:03:40 14752
0.
 265249  1.0563e-03  7.0593e-04  3.1841e-03  7.3694e-04  3.9110e-08  3.6874e-07  1:38:56 14751
0.
 265250  1.0516e-03  7.0288e-04  3.1723e-03  7.3348e-04  3.9109e-08  3.6875e-07  2:08:18 14750
0.
 265251  1.0469e-03  6.9993e-04  3.1693e-03  7.3013e-04  3.9108e-08  3.6876e-07  1:42:38 14749
0.

  iter  continuity  x-velocity  y-velocity      energy           k     epsilon     time/iter
 265252  1.0422e-03  6.9722e-04  3.1621e-03  7.2689e-04  3.9109e-08  3.6868e-07  2:11:16 14748
0.
 265253  1.0375e-03  6.9460e-04  3.1494e-03  7.2384e-04  3.9109e-08  3.6854e-07  1:45:00 14747
0.
 265254  1.0327e-03  6.9208e-04  3.1313e-03  7.2052e-04  3.9106e-08  3.6831e-07  1:24:00 14746
0.
 265255  1.0277e-03  6.8950e-04  3.1085e-03  7.1708e-04  3.9100e-08  3.6800e-07  1:56:21 14745
0.
 265256  1.0224e-03  6.8665e-04  3.0815e-03  7.1340e-04  3.9092e-08  3.6758e-07  1:33:04 14744
0.
 265257  1.0167e-03  6.8339e-04  3.0511e-03  7.0944e-04  3.9084e-08  3.6705e-07  2:03:36 14743
0.
 265258  1.0108e-03  6.7973e-04  3.0181e-03  7.0516e-04  3.9074e-08  3.6644e-07  1:38:52 14742
0.
 265259  1.0046e-03  6.7572e-04  2.9892e-03  7.0064e-04  3.9064e-08  3.6581e-07  2:08:14 14741
0.
 265260  9.9829e-04  6.7136e-04  2.9605e-03  6.9598e-04  3.9054e-08  3.6519e-07  1:42:34 14740
0.
 265261  9.9167e-04  6.6684e-04  2.9271e-03  6.9109e-04  3.9043e-08  3.6451e-07  2:11:11 14739
0.
 265262  9.8508e-04  6.6220e-04  2.8907e-03  6.8620e-04  3.9033e-08  3.6372e-07  1:44:56 14738
0.

  iter  continuity  x-velocity  y-velocity      energy           k     epsilon     time/iter
 265263  9.7867e-04  6.5754e-04  2.8538e-03  6.8144e-04  3.9022e-08  3.6284e-07  2:13:04 14737
0.
 265264  9.7240e-04  6.5290e-04  2.8165e-03  6.7681e-04  3.9011e-08  3.6192e-07  1:46:27 14736
0.
 265265  9.6626e-04  6.4835e-04  2.7790e-03  6.7232e-04  3.9002e-08  3.6100e-07  2:14:16 14735
0.
 265266  9.6023e-04  6.4394e-04  2.7415e-03  6.6781e-04  3.8991e-08  3.6002e-07  1:47:24 14734
0.
 265267  9.5438e-04  6.3965e-04  2.7042e-03  6.6359e-04  3.8983e-08  3.5909e-07  1:25:55 14733
0.
 265268  9.4869e-04  6.3547e-04  2.6672e-03  6.5964e-04  3.8974e-08  3.5815e-07  1:57:50 14732
0.
 265269  9.4282e-04  6.3148e-04  2.6316e-03  6.5558e-04  3.8962e-08  3.5742e-07  1:34:16 14731
0.
 265270  9.3702e-04  6.2772e-04  2.5970e-03  6.5164e-04  3.8953e-08  3.5670e-07  2:04:30 14730
0.
 265271  9.3154e-04  6.2413e-04  2.5631e-03  6.4797e-04  3.8947e-08  3.5599e-07  1:39:36 14729
0.
 265272  9.2627e-04  6.2066e-04  2.5302e-03  6.4441e-04  3.8942e-08  3.5549e-07  2:08:46 14728
0.
 265273  9.2121e-04  6.1725e-04  2.4980e-03  6.4099e-04  3.8938e-08  3.5496e-07  1:43:00 14727
0.

  iter  continuity  x-velocity  y-velocity      energy           k     epsilon     time/iter
 265274  9.1624e-04  6.1383e-04  2.4663e-03  6.3762e-04  3.8934e-08  3.5437e-07  2:11:29 14726
0.
 265275  9.1128e-04  6.1039e-04  2.4353e-03  6.3420e-04  3.8928e-08  3.5372e-07  1:45:11 14725
0.
 265276  9.0628e-04  6.0691e-04  2.4050e-03  6.3068e-04  3.8922e-08  3.5304e-07  2:13:13 14724
0.
 265277  9.0155e-04  6.0324e-04  2.3753e-03  6.2734e-04  3.8915e-08  3.5235e-07  1:46:34 14723
0.
 265278  8.9669e-04  5.9926e-04  2.3463e-03  6.2375e-04  3.8907e-08  3.5178e-07  1:25:15 14722
0.
 265279  8.9165e-04  5.9518e-04  2.3176e-03  6.1990e-04  3.8898e-08  3.5149e-07  1:57:16 14721
0.
 265280  8.8647e-04  5.9103e-04  2.2892e-03  6.1581e-04  3.8893e-08  3.5120e-07  1:33:48 14720
0.
 265281  8.8121e-04  5.8682e-04  2.2612e-03  6.1157e-04  3.8893e-08  3.5099e-07  2:04:06 14719
0.
 265282  8.7595e-04  5.8258e-04  2.2336e-03  6.0725e-04  3.8895e-08  3.5079e-07  1:39:17 14718
0.
 265283  8.7070e-04  5.7839e-04  2.2064e-03  6.0284e-04  3.8895e-08  3.5059e-07  2:08:28 14717
0.
 265284  8.6549e-04  5.7433e-04  2.1798e-03  5.9844e-04  3.8896e-08  3.5034e-07  1:42:46 14716
0.

  iter  continuity  x-velocity  y-velocity      energy           k     epsilon     time/iter
 265285  8.6038e-04  5.7049e-04  2.1537e-03  5.9411e-04  3.8898e-08  3.5008e-07  2:11:16 14715
0.
 265286  8.5541e-04  5.6699e-04  2.1283e-03  5.8993e-04  3.8899e-08  3.4977e-07  1:45:00 14714
0.
 265287  8.5064e-04  5.6398e-04  2.1033e-03  5.8593e-04  3.8899e-08  3.4962e-07  1:24:00 14713
0.
 265288  8.4605e-04  5.6163e-04  2.0788e-03  5.8201e-04  3.8897e-08  3.4949e-07  1:56:14 14712
0.
 265289  8.4006e-04  5.5902e-04  2.0535e-03  5.7666e-04  3.8898e-08  3.4952e-07  1:32:59 14711
0.
 265290  8.3473e-04  5.5708e-04  2.0274e-03  5.7207e-04  3.8901e-08  3.4956e-07  2:03:25 14710
0.
 265291  8.2979e-04  5.5596e-04  2.0016e-03  5.6784e-04  3.8905e-08  3.4956e-07  1:38:43 14709
0.
 265292  8.2503e-04  5.5539e-04  1.9764e-03  5.6386e-04  3.8909e-08  3.4953e-07  1:18:58 14708
0.
 265293  8.2033e-04  5.5510e-04  1.9522e-03  5.5996e-04  3.8913e-08  3.4944e-07  1:52:12 14707
0.
 265294  8.1557e-04  5.5476e-04  1.9292e-03  5.5601e-04  3.8916e-08  3.4930e-07  1:29:45 14706
0.
 265295  8.1066e-04  5.5404e-04  1.9076e-03  5.5185e-04  3.8918e-08  3.4920e-07  2:00:49 14705
0.

  iter  continuity  x-velocity  y-velocity      energy           k     epsilon     time/iter
 265296  8.0554e-04  5.5265e-04  1.8873e-03  5.4739e-04  3.8921e-08  3.4920e-07  1:36:39 14704
0.
 265297  7.9990e-04  5.4769e-04  1.8677e-03  5.4239e-04  3.8927e-08  3.4920e-07  2:06:19 14703
0.
 265298  7.9369e-04  5.4030e-04  1.8482e-03  5.3677e-04  3.8936e-08  3.4919e-07  1:41:03 14702
0.
 265299  7.8719e-04  5.3262e-04  1.8280e-03  5.3080e-04  3.8944e-08  3.4930e-07  2:09:50 14701
0.
 265300  7.8062e-04  5.2511e-04  1.8076e-03  5.2476e-04  3.8951e-08  3.4938e-07  1:43:52 14700
0.
 265301  7.7419e-04  5.1814e-04  1.7876e-03  5.1890e-04  3.8955e-08  3.4948e-07  1:23:05 14699
0.
 265302  7.6805e-04  5.1204e-04  1.7684e-03  5.1340e-04  3.8962e-08  3.4951e-07  1:55:27 14698
0.
 265303  7.6225e-04  5.0702e-04  1.7505e-03  5.0834e-04  3.8965e-08  3.4960e-07  1:32:22 14697
0.
 265304  7.5682e-04  5.0314e-04  1.7345e-03  5.0387e-04  3.8967e-08  3.4983e-07  2:02:52 14696
0.
 265305  7.5178e-04  5.0030e-04  1.7205e-03  4.9979e-04  3.8970e-08  3.4998e-07  1:38:17 14695
0.
 265306  7.4705e-04  4.9756e-04  1.7084e-03  4.9600e-04  3.8973e-08  3.5009e-07  2:07:36 14694
0.

  iter  continuity  x-velocity  y-velocity      energy           k     epsilon     time/iter
 265307  7.4221e-04  4.9494e-04  1.6981e-03  4.9207e-04  3.8974e-08  3.5032e-07  1:42:05 14693
0.
 265308  7.3727e-04  4.9224e-04  1.6891e-03  4.8798e-04  3.8975e-08  3.5050e-07  2:10:38 14692
0.
 265309  7.3211e-04  4.8939e-04  1.6808e-03  4.8365e-04  3.8978e-08  3.5068e-07  1:44:30 14691
0.
 265310  7.2677e-04  4.8641e-04  1.6735e-03  4.7923e-04  3.8981e-08  3.5099e-07  1:23:35 14690
0.
 265311  7.2142e-04  4.8333e-04  1.6672e-03  4.7489e-04  3.8985e-08  3.5129e-07  1:55:50 14689
0.
 265312  7.1618e-04  4.8023e-04  1.6609e-03  4.7069e-04  3.8989e-08  3.5161e-07  1:32:40 14688
0.
 265313  7.1108e-04  4.7720e-04  1.6547e-03  4.6671e-04  3.8994e-08  3.5199e-07  2:03:05 14687
0.
 265314  7.0612e-04  4.7429e-04  1.6487e-03  4.6284e-04  3.8997e-08  3.5235e-07  1:38:27 14686
0.
 265315  7.0145e-04  4.7172e-04  1.6427e-03  4.5932e-04  3.9001e-08  3.5263e-07  2:07:43 14685
0.
 265316  6.9699e-04  4.6949e-04  1.6366e-03  4.5602e-04  3.9003e-08  3.5292e-07  1:42:10 14684
0.
 265317  6.9254e-04  4.6742e-04  1.6306e-03  4.5269e-04  3.9003e-08  3.5322e-07  2:10:40 14683
0.

  iter  continuity  x-velocity  y-velocity      energy           k     epsilon     time/iter
 265318  6.8800e-04  4.6543e-04  1.6245e-03  4.4931e-04  3.9003e-08  3.5349e-07  1:44:32 14682
0.
 265319  6.8331e-04  4.6342e-04  1.6185e-03  4.4583e-04  3.9005e-08  3.5369e-07  1:23:37 14681
0.
 265320  6.7848e-04  4.6133e-04  1.6125e-03  4.4225e-04  3.9008e-08  3.5384e-07  1:55:49 14680
0.
 265321  6.7353e-04  4.5908e-04  1.6063e-03  4.3856e-04  3.9010e-08  3.5409e-07  1:32:39 14679
0.
 265322  6.6846e-04  4.5665e-04  1.5999e-03  4.3471e-04  3.9009e-08  3.5449e-07  2:03:03 14678
0.
 265323  6.6330e-04  4.5402e-04  1.5933e-03  4.3078e-04  3.9010e-08  3.5490e-07  1:38:26 14677
0.
 265324  6.5807e-04  4.5116e-04  1.5868e-03  4.2678e-04  3.9017e-08  3.5536e-07  2:07:39 14676
0.
 265325  6.5280e-04  4.4809e-04  1.5803e-03  4.2274e-04  3.9020e-08  3.5574e-07  1:42:07 14675
0.
 265326  6.4753e-04  4.4489e-04  1.5740e-03  4.1868e-04  3.9024e-08  3.5606e-07  2:10:36 14674
0.
 265327  6.4236e-04  4.4167e-04  1.5681e-03  4.1466e-04  3.9029e-08  3.5636e-07  1:44:28 14673
0.
 265328  6.3728e-04  4.3851e-04  1.5626e-03  4.1072e-04  3.9035e-08  3.5677e-07  1:23:34 14672
0.

  iter  continuity  x-velocity  y-velocity      energy           k     epsilon     time/iter
 265329  6.3248e-04  4.3554e-04  1.5574e-03  4.0709e-04  3.9042e-08  3.5709e-07  1:55:45 14671
0.
 265330  6.2800e-04  4.3277e-04  1.5528e-03  4.0378e-04  3.9049e-08  3.5737e-07  1:32:36 14670
0.
 265331  6.2369e-04  4.3021e-04  1.5485e-03  4.0066e-04  3.9057e-08  3.5768e-07  2:02:58 14669
0.
 265332  6.1947e-04  4.2782e-04  1.5443e-03  3.9764e-04  3.9065e-08  3.5815e-07  1:38:22 14668
0.
 265333  6.1530e-04  4.2556e-04  1.5404e-03  3.9466e-04  3.9075e-08  3.5870e-07  2:07:35 14667
0.
 265334  6.1125e-04  4.2343e-04  1.5359e-03  3.9182e-04  3.9087e-08  3.5923e-07  1:42:03 14666
0.
 265335  6.0732e-04  4.2138e-04  1.5310e-03  3.8913e-04  3.9101e-08  3.5976e-07  2:10:31 14665
0.
 265336  6.0340e-04  4.1939e-04  1.5256e-03  3.8650e-04  3.9120e-08  3.6020e-07  1:44:25 14664
0.
 265337  5.9953e-04  4.1745e-04  1.5198e-03  3.8395e-04  3.9142e-08  3.6058e-07  1:23:31 14663
0.
 265338  5.9578e-04  4.1554e-04  1.5136e-03  3.8156e-04  3.9164e-08  3.6093e-07  1:55:41 14662
0.
 265339  5.9212e-04  4.1371e-04  1.5067e-03  3.7929e-04  3.9183e-08  3.6119e-07  1:32:33 14661
0.

  iter  continuity  x-velocity  y-velocity      energy           k     epsilon     time/iter
 265340  5.8857e-04  4.1196e-04  1.4992e-03  3.7716e-04  3.9201e-08  3.6149e-07  2:02:54 14660
0.
 265341  5.8520e-04  4.1029e-04  1.4912e-03  3.7520e-04  3.9217e-08  3.6178e-07  1:38:19 14659
0.
 265342  5.8195e-04  4.0870e-04  1.4831e-03  3.7336e-04  3.9235e-08  3.6195e-07  2:07:30 14658
0.
 265343  5.7881e-04  4.0718e-04  1.4751e-03  3.7159e-04  3.9250e-08  3.6219e-07  1:42:00 14657
0.
 265344  5.7580e-04  4.0574e-04  1.4675e-03  3.6992e-04  3.9264e-08  3.6249e-07  2:10:27 14656
0.
 265345  5.7291e-04  4.0436e-04  1.4605e-03  3.6831e-04  3.9279e-08  3.6293e-07  1:44:21 14655
0.
 265346  5.7016e-04  4.0305e-04  1.4542e-03  3.6678e-04  3.9297e-08  3.6335e-07  1:23:28 14654
0.
 265347  5.6753e-04  4.0181e-04  1.4488e-03  3.6529e-04  3.9314e-08  3.6370e-07  1:55:37 14653
0.
 265348  5.6498e-04  4.0044e-04  1.4442e-03  3.6377e-04  3.9335e-08  3.6401e-07  1:32:29 14652
0.
 265349  5.6250e-04  3.9890e-04  1.4405e-03  3.6227e-04  3.9353e-08  3.6431e-07  2:02:49 14651
0.
 265350  5.6016e-04  3.9742e-04  1.4376e-03  3.6087e-04  3.9370e-08  3.6475e-07  1:38:15 14650
0.

  iter  continuity  x-velocity  y-velocity      energy           k     epsilon     time/iter
 265351  5.5801e-04  3.9604e-04  1.4355e-03  3.5963e-04  3.9387e-08  3.6518e-07  2:07:26 14649
0.
 265352  5.5610e-04  3.9475e-04  1.4343e-03  3.5858e-04  3.9405e-08  3.6555e-07  1:41:56 14648
0.
 265353  5.5445e-04  3.9354e-04  1.4338e-03  3.5774e-04  3.9421e-08  3.6587e-07  2:10:22 14647
0.
 265354  5.5305e-04  3.9241e-04  1.4347e-03  3.5711e-04  3.9437e-08  3.6616e-07  1:44:17 14646
0.
 265355  5.5192e-04  3.9132e-04  1.4365e-03  3.5667e-04  3.9453e-08  3.6649e-07  1:23:25 14645
0.
 265356  5.5103e-04  3.9028e-04  1.4387e-03  3.5642e-04  3.9468e-08  3.6684e-07  1:55:33 14644
0.
 265357  5.5039e-04  3.8926e-04  1.4411e-03  3.5638e-04  3.9483e-08  3.6723e-07  1:32:26 14643
0.
 265358  5.4966e-04  3.8792e-04  1.4438e-03  3.5614e-04  3.9498e-08  3.6764e-07  2:02:45 14642
0.
 265359  5.4930e-04  3.8660e-04  1.4467e-03  3.5628e-04  3.9512e-08  3.6800e-07  1:38:11 14641
0.
 265360  5.4927e-04  3.8543e-04  1.4497e-03  3.5672e-04  3.9526e-08  3.6837e-07  2:07:21 14640
0.
 265361  5.4955e-04  3.8445e-04  1.4531e-03  3.5744e-04  3.9539e-08  3.6880e-07  1:41:52 14639
0.

  iter  continuity  x-velocity  y-velocity      energy           k     epsilon     time/iter
 265362  5.5011e-04  3.8361e-04  1.4567e-03  3.5840e-04  3.9551e-08  3.6926e-07  2:10:17 14638
0.
 265363  5.5096e-04  3.8290e-04  1.4607e-03  3.5961e-04  3.9562e-08  3.6977e-07  1:44:13 14637
0.
 265364  5.5210e-04  3.8228e-04  1.4653e-03  3.6103e-04  3.9578e-08  3.7025e-07  1:23:22 14636
0.
 265365  5.5351e-04  3.8170e-04  1.4723e-03  3.6263e-04  3.9594e-08  3.7071e-07  1:55:29 14635
0.
 265366  5.5518e-04  3.8117e-04  1.4805e-03  3.6438e-04  3.9608e-08  3.7115e-07  1:32:22 14634
0.
 265367  5.5711e-04  3.8066e-04  1.4885e-03  3.6629e-04  3.9620e-08  3.7154e-07  2:02:40 14633
0.
 265368  5.5933e-04  3.8019e-04  1.4964e-03  3.6840e-04  3.9630e-08  3.7193e-07  1:38:08 14632
0.
 265369  5.6186e-04  3.7974e-04  1.5052e-03  3.7073e-04  3.9639e-08  3.7233e-07  2:07:16 14631
0.
 265370  5.6465e-04  3.7933e-04  1.5160e-03  3.7325e-04  3.9648e-08  3.7279e-07  1:41:48 14630
0.
 265371  5.6775e-04  3.7901e-04  1.5270e-03  3.7599e-04  3.9656e-08  3.7332e-07  2:10:12 14629
0.
 265372  5.7123e-04  3.7882e-04  1.5380e-03  3.7900e-04  3.9666e-08  3.7381e-07  1:44:09 14628
0.

  iter  continuity  x-velocity  y-velocity      energy           k     epsilon     time/iter
 265373  5.7552e-04  3.7868e-04  1.5493e-03  3.8272e-04  3.9675e-08  3.7437e-07  1:23:19 14627
0.
 265374  5.8041e-04  3.7865e-04  1.5606e-03  3.8690e-04  3.9687e-08  3.7496e-07  1:55:24 14626
0.
 265375  5.8570e-04  3.7878e-04  1.5734e-03  3.9130e-04  3.9698e-08  3.7561e-07  1:32:19 14625
0.
 265376  5.9133e-04  3.7905e-04  1.5902e-03  3.9588e-04  3.9708e-08  3.7620e-07  2:02:36 14624
0.
 265377  5.9732e-04  3.7947e-04  1.6095e-03  4.0068e-04  3.9721e-08  3.7678e-07  1:38:04 14623
0.
 265378  6.0373e-04  3.8005e-04  1.6304e-03  4.0575e-04  3.9735e-08  3.7738e-07  2:07:11 14622
0.
 265379  6.1058e-04  3.8079e-04  1.6527e-03  4.1115e-04  3.9752e-08  3.7799e-07  1:41:45 14621
0.
 265380  6.1756e-04  3.8161e-04  1.6762e-03  4.1654e-04  3.9772e-08  3.7860e-07  1:21:23 14620
0.
 265381  6.2499e-04  3.8252e-04  1.7003e-03  4.2228e-04  3.9793e-08  3.7922e-07  1:53:50 14619
0.
 265382  6.3309e-04  3.8353e-04  1.7254e-03  4.2859e-04  3.9812e-08  3.7981e-07  1:31:04 14618
0.
 265383  6.4176e-04  3.8461e-04  1.7518e-03  4.3534e-04  3.9830e-08  3.8040e-07  2:01:34 14617
0.

  iter  continuity  x-velocity  y-velocity      energy           k     epsilon     time/iter
 265384  6.5079e-04  3.8574e-04  1.7800e-03  4.4232e-04  3.9847e-08  3.8093e-07  1:37:15 14616
0.
 265385  6.6044e-04  3.8699e-04  1.8091e-03  4.4978e-04  3.9863e-08  3.8156e-07  2:06:31 14615
0.
 265386  6.7111e-04  3.8850e-04  1.8377e-03  4.5810e-04  3.9879e-08  3.8219e-07  1:41:12 14614
0.
 265387  6.8235e-04  3.9016e-04  1.8713e-03  4.6678e-04  3.9896e-08  3.8281e-07  1:20:57 14613
0.
 265388  6.9413e-04  3.9204e-04  1.9087e-03  4.7584e-04  3.9916e-08  3.8343e-07  1:53:28 14612
0.
 265389  7.0646e-04  3.9416e-04  1.9479e-03  4.8528e-04  3.9937e-08  3.8407e-07  1:30:46 14611
0.
 265390  7.1933e-04  3.9647e-04  1.9888e-03  4.9508e-04  3.9956e-08  3.8468e-07  2:01:19 14610
0.
 265391  7.3262e-04  3.9890e-04  2.0292e-03  5.0514e-04  3.9977e-08  3.8523e-07  1:37:02 14609
0.
 265392  7.4630e-04  4.0149e-04  2.0676e-03  5.1546e-04  3.9999e-08  3.8575e-07  2:06:19 14608
0.
 265393  7.6013e-04  4.0418e-04  2.1082e-03  5.2579e-04  4.0022e-08  3.8621e-07  1:41:03 14607
0.
 265394  7.7438e-04  4.0709e-04  2.1509e-03  5.3640e-04  4.0041e-08  3.8661e-07  2:09:31 14606
0.

  iter  continuity  x-velocity  y-velocity      energy           k     epsilon     time/iter
 265395  7.8912e-04  4.1014e-04  2.1887e-03  5.4736e-04  4.0060e-08  3.8693e-07  1:43:37 14605
0.
 265396  8.0429e-04  4.1340e-04  2.2345e-03  5.5860e-04  4.0077e-08  3.8719e-07  1:22:53 14604
0.
 265397  8.1989e-04  4.1698e-04  2.2885e-03  5.7011e-04  4.0095e-08  3.8740e-07  1:54:59 14603
0.
 265398  8.3562e-04  4.2078e-04  2.3330e-03  5.8160e-04  4.0111e-08  3.8764e-07  1:31:59 14602
0.
 265399  8.5194e-04  4.2491e-04  2.3807e-03  5.9355e-04  4.0123e-08  3.8798e-07  2:02:15 14601
0.
 265400  8.6884e-04  4.2931e-04  2.4278e-03  6.0589e-04  4.0131e-08  3.8836e-07  1:37:47 14600
0.
 265401  8.8627e-04  4.3392e-04  2.4745e-03  6.1858e-04  4.0139e-08  3.8867e-07  2:06:53 14599
0.
 265402  9.0429e-04  4.3868e-04  2.5209e-03  6.3167e-04  4.0150e-08  3.8900e-07  1:41:30 14598
0.
 265403  9.2295e-04  4.4354e-04  2.5635e-03  6.4518e-04  4.0162e-08  3.8937e-07  2:09:51 14597
0.
 265404  9.4189e-04  4.4864e-04  2.5963e-03  6.5878e-04  4.0174e-08  3.8972e-07  1:43:53 14596
0.
 265405  9.6179e-04  4.5365e-04  2.6305e-03  6.7306e-04  4.0187e-08  3.9009e-07  1:23:06 14595
0.

  iter  continuity  x-velocity  y-velocity      energy           k     epsilon     time/iter
 265406  9.8422e-04  4.5869e-04  2.6630e-03  6.8956e-04  4.0203e-08  3.9039e-07  1:55:07 14594
0.
 265407  1.0068e-03  4.6380e-04  2.6972e-03  7.0580e-04  4.0220e-08  3.9066e-07  1:32:05 14593
0.
 265408  1.0294e-03  4.6890e-04  2.7192e-03  7.2182e-04  4.0235e-08  3.9090e-07  2:02:18 14592
0.
 265409  1.0525e-03  4.7403e-04  2.7374e-03  7.3789e-04  4.0246e-08  3.9110e-07  1:37:50 14591
0.
 265410  1.0759e-03  4.7919e-04  2.7662e-03  7.5407e-04  4.0258e-08  3.9125e-07  2:06:54 14590
0.
 265411  1.0998e-03  4.8437e-04  2.7891e-03  7.7044e-04  4.0269e-08  3.9136e-07  1:41:31 14589
0.
 265412  1.1242e-03  4.8970e-04  2.8213e-03  7.8706e-04  4.0280e-08  3.9144e-07  2:09:50 14588
0.
 265413  1.1491e-03  4.9525e-04  2.8602e-03  8.0400e-04  4.0285e-08  3.9154e-07  1:43:51 14587
0.
 265414  1.1746e-03  5.0100e-04  2.9012e-03  8.2133e-04  4.0287e-08  3.9162e-07  1:23:05 14586
0.
 265415  1.2005e-03  5.0698e-04  2.9346e-03  8.3905e-04  4.0290e-08  3.9172e-07  1:55:05 14585
0.
 265416  1.2270e-03  5.1324e-04  2.9700e-03  8.5720e-04  4.0293e-08  3.9182e-07  1:32:03 14584
0.

  iter  continuity  x-velocity  y-velocity      energy           k     epsilon     time/iter
 265417  1.2536e-03  5.1964e-04  3.0053e-03  8.7538e-04  4.0293e-08  3.9190e-07  2:02:15 14583
0.
 265418  1.2801e-03  5.2616e-04  3.0425e-03  8.9345e-04  4.0297e-08  3.9196e-07  1:37:48 14582
0.
 265419  1.3070e-03  5.3299e-04  3.0811e-03  9.1202e-04  4.0305e-08  3.9197e-07  2:06:50 14581
0.
 265420  1.3342e-03  5.4005e-04  3.1207e-03  9.3088e-04  4.0309e-08  3.9213e-07  1:41:28 14580
0.
 265421  1.3618e-03  5.4757e-04  3.1608e-03  9.5030e-04  4.0313e-08  3.9240e-07  1:21:10 14579
0.
 265422  1.3895e-03  5.5539e-04  3.2036e-03  9.6985e-04  4.0317e-08  3.9282e-07  1:53:31 14578
0.
 265423  1.4165e-03  5.6476e-04  3.2441e-03  9.8890e-04  4.0324e-08  3.9324e-07  1:30:48 14577
0.
 265424  1.4439e-03  5.7528e-04  3.2848e-03  1.0085e-03  4.0332e-08  3.9361e-07  2:01:14 14576
0.
 265425  1.4695e-03  5.8639e-04  3.3166e-03  1.0265e-03  4.0343e-08  3.9395e-07  1:36:59 14575
0.
 265426  1.4937e-03  5.9755e-04  3.3495e-03  1.0433e-03  4.0354e-08  3.9424e-07  2:06:09 14574
0.
 265427  1.5161e-03  6.0877e-04  3.3752e-03  1.0583e-03  4.0365e-08  3.9458e-07  1:40:55 14573
0.

  iter  continuity  x-velocity  y-velocity      energy           k     epsilon     time/iter
 265428  1.5357e-03  6.1965e-04  3.3947e-03  1.0710e-03  4.0381e-08  3.9495e-07  2:09:18 14572
0.
 265429  1.5525e-03  6.2964e-04  3.4083e-03  1.0812e-03  4.0397e-08  3.9535e-07  1:43:26 14571
0.
 265430  1.5666e-03  6.3868e-04  3.4170e-03  1.0893e-03  4.0414e-08  3.9577e-07  1:22:45 14570
0.
 265431  1.5784e-03  6.4642e-04  3.4190e-03  1.0956e-03  4.0435e-08  3.9624e-07  1:54:45 14569
0.
 265432  1.5905e-03  6.5395e-04  3.4115e-03  1.1029e-03  4.0458e-08  3.9669e-07  1:31:48 14568
0.
 265433  1.5996e-03  6.6093e-04  3.3987e-03  1.1077e-03  4.0482e-08  3.9725e-07  2:01:59 14567
0.
 265434  1.6063e-03  6.6721e-04  3.3865e-03  1.1108e-03  4.0506e-08  3.9798e-07  1:37:35 14566
0.
 265435  1.6107e-03  6.7278e-04  3.3700e-03  1.1123e-03  4.0532e-08  3.9897e-07  2:06:37 14565
0.
 265436  1.6109e-03  6.7652e-04  3.3502e-03  1.1102e-03  4.0560e-08  4.0000e-07  1:41:17 14564
0.
 265437  1.6092e-03  6.7795e-04  3.3316e-03  1.1069e-03  4.0589e-08  4.0103e-07  1:21:01 14563
0.
 265438  1.6067e-03  6.7860e-04  3.3143e-03  1.1032e-03  4.0620e-08  4.0203e-07  1:53:21 14562
0.

  iter  continuity  x-velocity  y-velocity      energy           k     epsilon     time/iter
 265439  1.6040e-03  6.7831e-04  3.2963e-03  1.0998e-03  4.0649e-08  4.0299e-07  1:30:41 14561
0.
 265440  1.5999e-03  6.7771e-04  3.2802e-03  1.0958e-03  4.0678e-08  4.0390e-07  2:01:04 14560
0.
 265441  1.5944e-03  6.7684e-04  3.2658e-03  1.0908e-03  4.0709e-08  4.0480e-07  1:36:51 14559
0.
 265442  1.5871e-03  6.7531e-04  3.2530e-03  1.0846e-03  4.0738e-08  4.0573e-07  2:06:00 14558
0.
 265443  1.5791e-03  6.7350e-04  3.2409e-03  1.0782e-03  4.0765e-08  4.0689e-07  1:40:48 14557
0.
 265444  1.5704e-03  6.7130e-04  3.2282e-03  1.0715e-03  4.0791e-08  4.0801e-07  2:09:09 14556
0.
 265445  1.5609e-03  6.6854e-04  3.2165e-03  1.0645e-03  4.0819e-08  4.0919e-07  1:43:19 14555
0.
 265446  1.5510e-03  6.6512e-04  3.2054e-03  1.0574e-03  4.0845e-08  4.1065e-07  1:22:39 14554
0.
 265447  1.5410e-03  6.6109e-04  3.1924e-03  1.0504e-03  4.0876e-08  4.1243e-07  1:54:37 14553
0.
 265448  1.5309e-03  6.5727e-04  3.1783e-03  1.0435e-03  4.0910e-08  4.1425e-07  1:31:41 14552
0.
 265449  1.5209e-03  6.5265e-04  3.1645e-03  1.0367e-03  4.0948e-08  4.1608e-07  2:01:51 14551
0.

  iter  continuity  x-velocity  y-velocity      energy           k     epsilon     time/iter
 265450  1.5117e-03  6.4763e-04  3.1556e-03  1.0308e-03  4.0988e-08  4.1787e-07  1:37:28 14550
0.
 265451  1.5029e-03  6.4263e-04  3.1480e-03  1.0254e-03  4.1029e-08  4.1963e-07  2:06:28 14549
0.
 265452  1.4939e-03  6.3780e-04  3.1398e-03  1.0200e-03  4.1070e-08  4.2137e-07  1:41:10 14548
0.
 265453  1.4849e-03  6.3316e-04  3.1282e-03  1.0146e-03  4.1111e-08  4.2311e-07  2:09:25 14547
0.
 265454  1.4751e-03  6.2860e-04  3.1158e-03  1.0085e-03  4.1151e-08  4.2486e-07  1:43:32 14546
0.
 265455  1.4657e-03  6.2179e-04  3.1037e-03  1.0025e-03  4.1193e-08  4.2650e-07  2:11:18 14545
0.
 265456  1.4564e-03  6.1599e-04  3.1004e-03  9.9662e-04  4.1230e-08  4.2807e-07  1:45:02 14544
0.
 265457  1.4467e-03  6.1069e-04  3.0984e-03  9.9032e-04  4.1266e-08  4.2982e-07  1:24:01 14543
0.
 265458  1.4370e-03  6.0590e-04  3.0967e-03  9.8400e-04  4.1299e-08  4.3144e-07  1:55:41 14542
0.
 265459  1.4274e-03  6.0145e-04  3.0973e-03  9.7767e-04  4.1334e-08  4.3296e-07  1:32:33 14541
0.
 265460  1.4178e-03  5.9724e-04  3.1005e-03  9.7136e-04  4.1371e-08  4.3447e-07  2:02:30 14540
0.

  iter  continuity  x-velocity  y-velocity      energy           k     epsilon     time/iter
 265461  1.4082e-03  5.9321e-04  3.1018e-03  9.6506e-04  4.1406e-08  4.3602e-07  1:37:59 14539
0.
 265462  1.3987e-03  5.8928e-04  3.1026e-03  9.5875e-04  4.1438e-08  4.3744e-07  2:06:51 14538
0.
 265463  1.3891e-03  5.8538e-04  3.0988e-03  9.5242e-04  4.1468e-08  4.3880e-07  1:41:28 14537
0.
 265464  1.3796e-03  5.8117e-04  3.0910e-03  9.4613e-04  4.1497e-08  4.4023e-07  2:09:37 14536
0.
 265465  1.3704e-03  5.7693e-04  3.0792e-03  9.4004e-04  4.1523e-08  4.4148e-07  1:43:42 14535
0.
 265466  1.3614e-03  5.7283e-04  3.0640e-03  9.3417e-04  4.1547e-08  4.4263e-07  2:11:24 14534
0.
 265467  1.3526e-03  5.6871e-04  3.0451e-03  9.2835e-04  4.1566e-08  4.4367e-07  1:45:06 14533
0.
 265468  1.3427e-03  5.6410e-04  3.0232e-03  9.2152e-04  4.1583e-08  4.4463e-07  1:24:05 14532
0.
 265469  1.3327e-03  5.5937e-04  2.9995e-03  9.1445e-04  4.1598e-08  4.4555e-07  1:55:42 14531
0.
 265470  1.3226e-03  5.5472e-04  2.9743e-03  9.0735e-04  4.1616e-08  4.4636e-07  1:32:33 14530
0.
 265471  1.3129e-03  5.5021e-04  2.9482e-03  9.0052e-04  4.1640e-08  4.4707e-07  2:02:28 14529
0.

  iter  continuity  x-velocity  y-velocity      energy           k     epsilon     time/iter
 265472  1.3034e-03  5.4574e-04  2.9218e-03  8.9391e-04  4.1665e-08  4.4775e-07  1:37:58 14528
0.
 265473  1.2942e-03  5.4129e-04  2.8950e-03  8.8745e-04  4.1696e-08  4.4851e-07  2:06:47 14527
0.
 265474  1.2852e-03  5.3677e-04  2.8675e-03  8.8120e-04  4.1729e-08  4.4917e-07  1:41:26 14526
0.
 265475  1.2768e-03  5.3213e-04  2.8404e-03  8.7557e-04  4.1765e-08  4.4968e-07  2:09:33 14525
0.
 265476  1.2686e-03  5.2774e-04  2.8137e-03  8.7011e-04  4.1799e-08  4.5005e-07  1:43:38 14524
0.
 265477  1.2605e-03  5.2354e-04  2.7873e-03  8.6476e-04  4.1830e-08  4.5024e-07  2:11:19 14523
0.
 265478  1.2526e-03  5.1950e-04  2.7611e-03  8.5965e-04  4.1859e-08  4.5035e-07  1:45:03 14522
0.
 265479  1.2446e-03  5.1561e-04  2.7347e-03  8.5436e-04  4.1885e-08  4.5030e-07  2:12:26 14521
0.
 265480  1.2364e-03  5.1187e-04  2.7084e-03  8.4879e-04  4.1910e-08  4.5037e-07  1:45:56 14520
0.
 265481  1.2279e-03  5.0822e-04  2.6829e-03  8.4289e-04  4.1935e-08  4.5059e-07  1:24:45 14519
0.
 265482  1.2191e-03  5.0464e-04  2.6582e-03  8.3666e-04  4.1960e-08  4.5074e-07  1:56:11 14518
0.

  iter  continuity  x-velocity  y-velocity      energy           k     epsilon     time/iter
 265483  1.2100e-03  5.0109e-04  2.6347e-03  8.3008e-04  4.1987e-08  4.5086e-07  1:32:56 14517
0.
 265484  1.2006e-03  4.9757e-04  2.6124e-03  8.2320e-04  4.2013e-08  4.5098e-07  2:02:44 14516
0.
 265485  1.1909e-03  4.9408e-04  2.5914e-03  8.1607e-04  4.2037e-08  4.5128e-07  1:38:11 14515
0.
 265486  1.1811e-03  4.9062e-04  2.5714e-03  8.0878e-04  4.2059e-08  4.5156e-07  2:06:55 14514
0.
 265487  1.1712e-03  4.8719e-04  2.5521e-03  8.0139e-04  4.2082e-08  4.5194e-07  1:41:32 14513
0.
 265488  1.1612e-03  4.8383e-04  2.5333e-03  7.9401e-04  4.2107e-08  4.5235e-07  2:09:35 14512
0.
 265489  1.1512e-03  4.8055e-04  2.5153e-03  7.8669e-04  4.2133e-08  4.5275e-07  1:43:40 14511
0.
 265490  1.1413e-03  4.7726e-04  2.4974e-03  7.7953e-04  4.2160e-08  4.5314e-07  1:22:56 14510
0.
 265491  1.1316e-03  4.7410e-04  2.4786e-03  7.7262e-04  4.2183e-08  4.5350e-07  1:54:42 14509
0.
 265492  1.1221e-03  4.7108e-04  2.4602e-03  7.6597e-04  4.2207e-08  4.5380e-07  1:31:45 14508
0.
 265493  1.1127e-03  4.6815e-04  2.4422e-03  7.5955e-04  4.2234e-08  4.5406e-07  2:01:45 14507
0.

  iter  continuity  x-velocity  y-velocity      energy           k     epsilon     time/iter
 265494  1.1035e-03  4.6531e-04  2.4245e-03  7.5331e-04  4.2258e-08  4.5433e-07  1:37:24 14506
0.
 265495  1.0944e-03  4.6256e-04  2.4074e-03  7.4724e-04  4.2281e-08  4.5449e-07  2:06:16 14505
0.
 265496  1.0854e-03  4.5984e-04  2.3908e-03  7.4130e-04  4.2305e-08  4.5463e-07  1:41:00 14504
0.
 265497  1.0765e-03  4.5717e-04  2.3744e-03  7.3546e-04  4.2330e-08  4.5467e-07  1:20:48 14503
0.
 265498  1.0676e-03  4.5452e-04  2.3586e-03  7.2968e-04  4.2359e-08  4.5466e-07  1:52:58 14502
0.
 265499  1.0588e-03  4.5190e-04  2.3433e-03  7.2392e-04  4.2391e-08  4.5459e-07  1:30:22 14501
0.
 265500  1.0500e-03  4.4926e-04  2.3287e-03  7.1807e-04  4.2420e-08  4.5447e-07  2:00:38 14500
0.
 265501  1.0411e-03  4.4662e-04  2.3145e-03  7.1214e-04  4.2447e-08  4.5436e-07  1:36:30 14499
0.
 265502  1.0322e-03  4.4405e-04  2.3008e-03  7.0620e-04  4.2472e-08  4.5423e-07  2:05:31 14498
0.
 265503  1.0233e-03  4.4152e-04  2.2873e-03  7.0028e-04  4.2496e-08  4.5405e-07  1:40:24 14497
0.
 265504  1.0144e-03  4.3907e-04  2.2741e-03  6.9437e-04  4.2518e-08  4.5374e-07  1:20:19 14496
0.

  iter  continuity  x-velocity  y-velocity      energy           k     epsilon     time/iter
 265505  1.0056e-03  4.3671e-04  2.2610e-03  6.8848e-04  4.2542e-08  4.5335e-07  1:52:34 14495
0.
 265506  9.9687e-04  4.3442e-04  2.2478e-03  6.8262e-04  4.2566e-08  4.5306e-07  1:30:03 14494
0.
 265507  9.8817e-04  4.3221e-04  2.2347e-03  6.7681e-04  4.2589e-08  4.5278e-07  2:00:21 14493
0.
 265508  9.7956e-04  4.3007e-04  2.2218e-03  6.7107e-04  4.2609e-08  4.5252e-07  1:36:16 14492
0.
 265509  9.7104e-04  4.2800e-04  2.2086e-03  6.6539e-04  4.2631e-08  4.5219e-07  2:05:19 14491
0.
 265510  9.6262e-04  4.2598e-04  2.1951e-03  6.5980e-04  4.2651e-08  4.5180e-07  1:40:15 14490
0.
 265511  9.5432e-04  4.2402e-04  2.1817e-03  6.5432e-04  4.2669e-08  4.5136e-07  1:20:11 14489
0.
 265512  9.4616e-04  4.2210e-04  2.1684e-03  6.4894e-04  4.2685e-08  4.5091e-07  1:52:26 14488
0.
 265513  9.3816e-04  4.2024e-04  2.1552e-03  6.4370e-04  4.2704e-08  4.5044e-07  1:29:57 14487
0.
 265514  9.3034e-04  4.1841e-04  2.1420e-03  6.3859e-04  4.2720e-08  4.4993e-07  2:00:14 14486
0.
 265515  9.2267e-04  4.1661e-04  2.1289e-03  6.3361e-04  4.2735e-08  4.4937e-07  1:36:11 14485
0.

  iter  continuity  x-velocity  y-velocity      energy           k     epsilon     time/iter
 265516  9.1518e-04  4.1484e-04  2.1159e-03  6.2875e-04  4.2754e-08  4.4875e-07  2:05:13 14484
0.
 265517  9.0785e-04  4.1309e-04  2.1033e-03  6.2402e-04  4.2773e-08  4.4809e-07  1:40:10 14483
0.
 265518  9.0069e-04  4.1136e-04  2.0913e-03  6.1942e-04  4.2790e-08  4.4740e-07  1:20:08 14482
0.
 265519  8.9369e-04  4.0963e-04  2.0793e-03  6.1493e-04  4.2805e-08  4.4673e-07  1:52:22 14481
0.
 265520  8.8687e-04  4.0790e-04  2.0672e-03  6.1057e-04  4.2820e-08  4.4607e-07  1:29:53 14480
0.
 265521  8.8020e-04  4.0618e-04  2.0546e-03  6.0630e-04  4.2834e-08  4.4539e-07  2:00:10 14479
0.
 265522  8.7374e-04  4.0447e-04  2.0421e-03  6.0220e-04  4.2847e-08  4.4468e-07  1:36:08 14478
0.
 265523  8.6735e-04  4.0273e-04  2.0300e-03  5.9812e-04  4.2859e-08  4.4396e-07  1:16:54 14477
0.
 265524  8.6106e-04  4.0097e-04  2.0185e-03  5.9409e-04  4.2874e-08  4.4327e-07  1:49:46 14476
0.
 265525  8.5498e-04  3.9925e-04  2.0079e-03  5.9023e-04  4.2886e-08  4.4257e-07  1:27:48 14475
0.
 265526  8.4913e-04  3.9756e-04  1.9988e-03  5.8653e-04  4.2901e-08  4.4184e-07  1:58:29 14474
0.

  iter  continuity  x-velocity  y-velocity      energy           k     epsilon     time/iter
 265527  8.4348e-04  3.9594e-04  1.9908e-03  5.8299e-04  4.2918e-08  4.4109e-07  1:34:47 14473
0.
 265528  8.3803e-04  3.9438e-04  1.9835e-03  5.7959e-04  4.2939e-08  4.4038e-07  2:04:04 14472
0.
 265529  8.3275e-04  3.9291e-04  1.9770e-03  5.7633e-04  4.2959e-08  4.3967e-07  1:39:15 14471
0.
 265530  8.2764e-04  3.9148e-04  1.9713e-03  5.7318e-04  4.2978e-08  4.3893e-07  2:07:37 14470
0.
 265531  8.2268e-04  3.9011e-04  1.9664e-03  5.7010e-04  4.2995e-08  4.3816e-07  1:42:05 14469
0.
 265532  8.1785e-04  3.8880e-04  1.9621e-03  5.6710e-04  4.3010e-08  4.3744e-07  1:21:40 14468
0.
 265533  8.1315e-04  3.8755e-04  1.9582e-03  5.6415e-04  4.3027e-08  4.3681e-07  1:53:33 14467
0.
 265534  8.0856e-04  3.8636e-04  1.9549e-03  5.6126e-04  4.3042e-08  4.3615e-07  1:30:50 14466
0.
 265535  8.0409e-04  3.8525e-04  1.9520e-03  5.5840e-04  4.3058e-08  4.3557e-07  2:00:53 14465
0.
 265536  7.9972e-04  3.8421e-04  1.9496e-03  5.5559e-04  4.3075e-08  4.3499e-07  1:36:42 14464
0.
 265537  7.9546e-04  3.8325e-04  1.9477e-03  5.5280e-04  4.3092e-08  4.3437e-07  2:05:34 14463
0.

  iter  continuity  x-velocity  y-velocity      energy           k     epsilon     time/iter
 265538  7.9130e-04  3.8238e-04  1.9465e-03  5.5004e-04  4.3109e-08  4.3373e-07  1:40:27 14462
0.
 265539  7.8722e-04  3.8158e-04  1.9459e-03  5.4729e-04  4.3127e-08  4.3310e-07  1:20:21 14461
0.
 265540  7.8324e-04  3.8086e-04  1.9456e-03  5.4456e-04  4.3146e-08  4.3255e-07  1:52:28 14460
0.
 265541  7.7941e-04  3.8019e-04  1.9455e-03  5.4191e-04  4.3163e-08  4.3196e-07  1:29:58 14459
0.
 265542  7.7572e-04  3.7959e-04  1.9456e-03  5.3933e-04  4.3176e-08  4.3143e-07  2:00:10 14458
0.
 265543  7.7217e-04  3.7906e-04  1.9458e-03  5.3681e-04  4.3192e-08  4.3094e-07  1:36:08 14457
0.
 265544  7.6874e-04  3.7861e-04  1.9464e-03  5.3432e-04  4.3205e-08  4.3052e-07  1:16:54 14456
0.
 265545  7.6542e-04  3.7824e-04  1.9473e-03  5.3185e-04  4.3218e-08  4.3010e-07  1:49:42 14455
0.
 265546  7.6221e-04  3.7789e-04  1.9486e-03  5.2941e-04  4.3232e-08  4.2966e-07  1:27:45 14454
0.
 265547  7.5913e-04  3.7766e-04  1.9506e-03  5.2703e-04  4.3247e-08  4.2925e-07  1:58:22 14453
0.
 265548  7.5619e-04  3.7759e-04  1.9534e-03  5.2473e-04  4.3260e-08  4.2885e-07  1:34:41 14452
0.

  iter  continuity  x-velocity  y-velocity      energy           k     epsilon     time/iter
 265549  7.5341e-04  3.7765e-04  1.9572e-03  5.2254e-04  4.3275e-08  4.2845e-07  2:03:55 14451
0.
 265550  7.5085e-04  3.7780e-04  1.9618e-03  5.2052e-04  4.3291e-08  4.2811e-07  1:39:08 14450
0.
 265551  7.4868e-04  3.7805e-04  1.9670e-03  5.1885e-04  4.3311e-08  4.2787e-07  1:19:18 14449
0.
 265552  7.4669e-04  3.7842e-04  1.9733e-03  5.1732e-04  4.3333e-08  4.2774e-07  1:51:36 14448
0.
 265553  7.4491e-04  3.7889e-04  1.9804e-03  5.1596e-04  4.3354e-08  4.2761e-07  1:29:16 14447
0.
 265554  7.4336e-04  3.7945e-04  1.9885e-03  5.1479e-04  4.3376e-08  4.2749e-07  1:59:34 14446
0.
 265555  7.4205e-04  3.8007e-04  1.9974e-03  5.1385e-04  4.3400e-08  4.2732e-07  1:35:39 14445
0.
 265556  7.4093e-04  3.8071e-04  2.0070e-03  5.1307e-04  4.3423e-08  4.2721e-07  2:04:39 14444
0.
 265557  7.3991e-04  3.8135e-04  2.0178e-03  5.1237e-04  4.3445e-08  4.2709e-07  1:39:43 14443
0.
 265558  7.3896e-04  3.8195e-04  2.0290e-03  5.1172e-04  4.3468e-08  4.2694e-07  1:19:46 14442
0.
 265559  7.3828e-04  3.8248e-04  2.0238e-03  5.1132e-04  4.3489e-08  4.2680e-07  1:51:57 14441
0.

  iter  continuity  x-velocity  y-velocity      energy           k     epsilon     time/iter
 265560  7.3793e-04  3.8285e-04  2.0199e-03  5.1121e-04  4.3508e-08  4.2668e-07  1:29:33 14440
0.
 265561  7.3790e-04  3.8304e-04  2.0182e-03  5.1135e-04  4.3525e-08  4.2650e-07  1:59:46 14439
0.
 265562  7.3822e-04  3.8315e-04  2.0187e-03  5.1178e-04  4.3540e-08  4.2637e-07  1:35:48 14438
0.
 265563  7.3880e-04  3.8318e-04  2.0183e-03  5.1239e-04  4.3557e-08  4.2621e-07  2:04:46 14437
0.
 265564  7.3957e-04  3.8319e-04  2.0104e-03  5.1314e-04  4.3575e-08  4.2603e-07  1:39:48 14436
0.
 265565  7.4081e-04  3.8334e-04  2.0056e-03  5.1433e-04  4.3591e-08  4.2584e-07  1:19:50 14435
0.
 265566  7.4237e-04  3.8356e-04  2.0034e-03  5.1578e-04  4.3605e-08  4.2558e-07  1:51:59 14434
0.
 265567  7.4421e-04  3.8384e-04  2.0041e-03  5.1746e-04  4.3618e-08  4.2536e-07  1:29:35 14433
0.
 265568  7.4634e-04  3.8420e-04  2.0074e-03  5.1935e-04  4.3629e-08  4.2509e-07  1:59:46 14432
0.
 265569  7.4881e-04  3.8465e-04  2.0136e-03  5.2150e-04  4.3639e-08  4.2481e-07  1:35:48 14431
0.
 265570  7.5174e-04  3.8524e-04  2.0224e-03  5.2399e-04  4.3650e-08  4.2458e-07  1:16:38 14430
0.

  iter  continuity  x-velocity  y-velocity      energy           k     epsilon     time/iter
 265571  7.5499e-04  3.8598e-04  2.0335e-03  5.2673e-04  4.3659e-08  4.2437e-07  1:49:24 14429
0.
 265572  7.5857e-04  3.8684e-04  2.0474e-03  5.2971e-04  4.3667e-08  4.2415e-07  1:27:31 14428
0.
 265573  7.6251e-04  3.8786e-04  2.0634e-03  5.3295e-04  4.3673e-08  4.2395e-07  1:58:06 14427
0.
 265574  7.6676e-04  3.8911e-04  2.0820e-03  5.3640e-04  4.3676e-08  4.2384e-07  1:34:28 14426
0.
 265575  7.7124e-04  3.9056e-04  2.0878e-03  5.3999e-04  4.3684e-08  4.2376e-07  2:03:39 14425
0.
 265576  7.7597e-04  3.9216e-04  2.0947e-03  5.4373e-04  4.3696e-08  4.2363e-07  1:38:55 14424
0.
 265577  7.8088e-04  3.9385e-04  2.1039e-03  5.4755e-04  4.3708e-08  4.2346e-07  2:07:12 14423
0.
 265578  7.8594e-04  3.9554e-04  2.1157e-03  5.5137e-04  4.3719e-08  4.2327e-07  1:41:45 14422
0.
 265579  7.9111e-04  3.9717e-04  2.1304e-03  5.5518e-04  4.3727e-08  4.2306e-07  2:09:28 14421
0.
 265580  7.9646e-04  3.9876e-04  2.1473e-03  5.5905e-04  4.3734e-08  4.2286e-07  1:43:34 14420
0.
 265581  8.0200e-04  4.0032e-04  2.1666e-03  5.6299e-04  4.3741e-08  4.2269e-07  1:22:51 14419
0.

  iter  continuity  x-velocity  y-velocity      energy           k     epsilon     time/iter
 265582  8.0770e-04  4.0194e-04  2.1888e-03  5.6700e-04  4.3747e-08  4.2265e-07  1:54:20 14418
0.
 265583  8.1346e-04  4.0356e-04  2.2132e-03  5.7096e-04  4.3753e-08  4.2270e-07  1:31:28 14417
0.
 265584  8.1939e-04  4.0520e-04  2.2406e-03  5.7503e-04  4.3761e-08  4.2274e-07  2:01:13 14416
0.
 265585  8.2540e-04  4.0696e-04  2.2690e-03  5.7911e-04  4.3769e-08  4.2284e-07  1:36:58 14415
0.
 265586  8.3157e-04  4.0893e-04  2.2947e-03  5.8333e-04  4.3780e-08  4.2292e-07  2:05:37 14414
0.
 265587  8.3799e-04  4.1108e-04  2.3034e-03  5.8780e-04  4.3791e-08  4.2294e-07  1:40:29 14413
0.
 265588  8.4483e-04  4.1343e-04  2.3100e-03  5.9266e-04  4.3801e-08  4.2295e-07  1:20:23 14412
0.
 265589  8.5204e-04  4.1595e-04  2.3159e-03  5.9783e-04  4.3809e-08  4.2295e-07  1:52:20 14411
0.
 265590  8.6080e-04  4.1884e-04  2.3221e-03  6.0448e-04  4.3816e-08  4.2300e-07  1:29:52 14410
0.
 265591  8.7099e-04  4.2205e-04  2.3314e-03  6.1250e-04  4.3823e-08  4.2308e-07  1:59:55 14409
0.
 265592  8.8090e-04  4.2491e-04  2.3446e-03  6.2011e-04  4.3828e-08  4.2323e-07  1:35:56 14408
0.

  iter  continuity  x-velocity  y-velocity      energy           k     epsilon     time/iter
 265593  8.9055e-04  4.2732e-04  2.3620e-03  6.2728e-04  4.3837e-08  4.2340e-07  2:04:46 14407
0.
 265594  9.0001e-04  4.2938e-04  2.3819e-03  6.3412e-04  4.3846e-08  4.2357e-07  1:39:48 14406
0.
 265595  9.0938e-04  4.3112e-04  2.4064e-03  6.4072e-04  4.3856e-08  4.2370e-07  2:07:51 14405
0.
 265596  9.1875e-04  4.3263e-04  2.4355e-03  6.4720e-04  4.3865e-08  4.2387e-07  1:42:16 14404
0.
 265597  9.2825e-04  4.3407e-04  2.4662e-03  6.5375e-04  4.3876e-08  4.2399e-07  1:21:49 14403
0.
 265598  9.3786e-04  4.3551e-04  2.4829e-03  6.6037e-04  4.3886e-08  4.2414e-07  1:53:27 14402
0.
 265599  9.4694e-04  4.3687e-04  2.4984e-03  6.6645e-04  4.3897e-08  4.2425e-07  1:30:45 14401
0.
 265600  9.5407e-04  4.3791e-04  2.5127e-03  6.7064e-04  4.3906e-08  4.2431e-07  2:00:36 14400
0.
 265601  9.6200e-04  4.3983e-04  2.5265e-03  6.7573e-04  4.3913e-08  4.2434e-07  1:36:28 14399
0.
 265602  9.7060e-04  4.4227e-04  2.5401e-03  6.8155e-04  4.3923e-08  4.2433e-07  2:05:10 14398
0.
 265603  9.7971e-04  4.4504e-04  2.5533e-03  6.8792e-04  4.3936e-08  4.2431e-07  1:40:08 14397
0.

  iter  continuity  x-velocity  y-velocity      energy           k     epsilon     time/iter
 265604  9.8922e-04  4.4801e-04  2.5631e-03  6.9472e-04  4.3948e-08  4.2441e-07  1:20:06 14396
0.
 265605  9.9902e-04  4.5098e-04  2.5764e-03  7.0181e-04  4.3960e-08  4.2472e-07  1:52:03 14395
0.
 265606  1.0090e-03  4.5386e-04  2.5925e-03  7.0907e-04  4.3972e-08  4.2510e-07  1:29:38 14394
0.
 265607  1.0191e-03  4.5660e-04  2.6104e-03  7.1641e-04  4.3983e-08  4.2542e-07  1:59:41 14393
0.
 265608  1.0292e-03  4.5919e-04  2.6269e-03  7.2375e-04  4.3993e-08  4.2570e-07  1:35:44 14392
0.
 265609  1.0393e-03  4.6171e-04  2.6336e-03  7.3107e-04  4.4003e-08  4.2594e-07  1:16:35 14391
0.
 265610  1.0492e-03  4.6413e-04  2.6363e-03  7.3828e-04  4.4017e-08  4.2614e-07  1:49:14 14390
0.
 265611  1.0591e-03  4.6657e-04  2.6429e-03  7.4543e-04  4.4027e-08  4.2627e-07  1:27:23 14389
0.
 265612  1.0687e-03  4.6904e-04  2.6514e-03  7.5239e-04  4.4033e-08  4.2633e-07  1:57:51 14388
0.
 265613  1.0781e-03  4.7156e-04  2.6609e-03  7.5911e-04  4.4037e-08  4.2637e-07  1:34:17 14387
0.
 265614  1.0870e-03  4.7414e-04  2.6705e-03  7.6551e-04  4.4041e-08  4.2652e-07  2:03:22 14386
0.

  iter  continuity  x-velocity  y-velocity      energy           k     epsilon     time/iter
 265615  1.0956e-03  4.7673e-04  2.6800e-03  7.7155e-04  4.4042e-08  4.2707e-07  1:38:41 14385
0.
 265616  1.1036e-03  4.7932e-04  2.6891e-03  7.7719e-04  4.4043e-08  4.2762e-07  2:06:54 14384
0.
 265617  1.1113e-03  4.8190e-04  2.6974e-03  7.8253e-04  4.4044e-08  4.2818e-07  1:41:30 14383
0.
 265618  1.1185e-03  4.8434e-04  2.7036e-03  7.8742e-04  4.4051e-08  4.2875e-07  1:21:12 14382
0.
 265619  1.1251e-03  4.8659e-04  2.7063e-03  7.9175e-04  4.4066e-08  4.2926e-07  1:52:54 14381
0.
 265620  1.1311e-03  4.8861e-04  2.7093e-03  7.9557e-04  4.4083e-08  4.2969e-07  1:30:18 14380
0.
 265621  1.1365e-03  4.9039e-04  2.7126e-03  7.9884e-04  4.4096e-08  4.3006e-07  2:00:10 14379
0.
 265622  1.1413e-03  4.9224e-04  2.7106e-03  8.0157e-04  4.4107e-08  4.3032e-07  1:36:08 14378
0.
 265623  1.1455e-03  4.9447e-04  2.6997e-03  8.0387e-04  4.4119e-08  4.3046e-07  2:04:49 14377
0.
 265624  1.1491e-03  4.9643e-04  2.6834e-03  8.0576e-04  4.4128e-08  4.3049e-07  1:39:51 14376
0.
 265625  1.1521e-03  4.9803e-04  2.6643e-03  8.0710e-04  4.4133e-08  4.3042e-07  1:19:53 14375
0.

  iter  continuity  x-velocity  y-velocity      energy           k     epsilon     time/iter
 265626  1.1543e-03  4.9943e-04  2.6460e-03  8.0785e-04  4.4140e-08  4.3021e-07  1:51:49 14374
0.
 265627  1.1559e-03  5.0067e-04  2.6275e-03  8.0814e-04  4.4145e-08  4.3024e-07  1:29:26 14373
0.
 265628  1.1568e-03  5.0165e-04  2.6097e-03  8.0791e-04  4.4150e-08  4.3040e-07  1:59:27 14372
0.
 265629  1.1569e-03  5.0225e-04  2.5938e-03  8.0708e-04  4.4153e-08  4.3051e-07  1:35:33 14371
0.
 265630  1.1563e-03  5.0245e-04  2.5772e-03  8.0571e-04  4.4155e-08  4.3064e-07  2:04:20 14370
0.
 265631  1.1545e-03  5.0268e-04  2.5614e-03  8.0351e-04  4.4157e-08  4.3081e-07  1:39:28 14369
0.
 265632  1.1517e-03  5.0238e-04  2.5400e-03  8.0054e-04  4.4155e-08  4.3087e-07  1:19:34 14368
0.
 265633  1.1478e-03  5.0156e-04  2.5181e-03  7.9670e-04  4.4149e-08  4.3084e-07  1:51:32 14367
0.
 265634  1.1430e-03  5.0033e-04  2.4979e-03  7.9229e-04  4.4143e-08  4.3071e-07  1:29:13 14366
0.
 265635  1.1365e-03  4.9796e-04  2.4789e-03  7.8644e-04  4.4137e-08  4.3048e-07  1:59:15 14365
0.
 265636  1.1296e-03  4.9538e-04  2.4620e-03  7.8033e-04  4.4133e-08  4.3031e-07  1:35:24 14364
0.

  iter  continuity  x-velocity  y-velocity      energy           k     epsilon     time/iter
 265637  1.1223e-03  4.9266e-04  2.4473e-03  7.7395e-04  4.4129e-08  4.3007e-07  1:16:19 14363
0.
 265638  1.1152e-03  4.9056e-04  2.4370e-03  7.6812e-04  4.4124e-08  4.2976e-07  1:48:55 14362
0.
 265639  1.1081e-03  4.8861e-04  2.4224e-03  7.6247e-04  4.4120e-08  4.2939e-07  1:27:08 14361
0.
 265640  1.1005e-03  4.8691e-04  2.4075e-03  7.5657e-04  4.4113e-08  4.2903e-07  1:57:34 14360
0.
 265641  1.0925e-03  4.8512e-04  2.3917e-03  7.5053e-04  4.4109e-08  4.2874e-07  1:34:03 14359
0.
 265642  1.0842e-03  4.8317e-04  2.3750e-03  7.4444e-04  4.4104e-08  4.2844e-07  2:03:06 14358
0.
 265643  1.0757e-03  4.8107e-04  2.3576e-03  7.3834e-04  4.4098e-08  4.2819e-07  1:38:28 14357
0.
 265644  1.0671e-03  4.7880e-04  2.3398e-03  7.3225e-04  4.4091e-08  4.2793e-07  1:18:46 14356
0.
 265645  1.0583e-03  4.7646e-04  2.3219e-03  7.2617e-04  4.4088e-08  4.2764e-07  1:50:52 14355
0.
 265646  1.0494e-03  4.7409e-04  2.3022e-03  7.2017e-04  4.4083e-08  4.2728e-07  1:28:41 14354
0.
 265647  1.0405e-03  4.7172e-04  2.2845e-03  7.1431e-04  4.4078e-08  4.2694e-07  1:58:47 14353
0.

  iter  continuity  x-velocity  y-velocity      energy           k     epsilon     time/iter
 265648  1.0317e-03  4.6932e-04  2.2683e-03  7.0866e-04  4.4076e-08  4.2666e-07  1:35:01 14352
0.
 265649  1.0232e-03  4.6691e-04  2.2539e-03  7.0325e-04  4.4073e-08  4.2638e-07  2:03:51 14351
0.
 265650  1.0148e-03  4.6447e-04  2.2413e-03  6.9811e-04  4.4068e-08  4.2612e-07  1:39:04 14350
0.
 265651  1.0068e-03  4.6206e-04  2.2304e-03  6.9326e-04  4.4064e-08  4.2591e-07  1:19:15 14349
0.
 265652  9.9921e-04  4.5974e-04  2.2211e-03  6.8876e-04  4.4061e-08  4.2570e-07  1:51:13 14348
0.
 265653  9.9195e-04  4.5774e-04  2.2129e-03  6.8460e-04  4.4057e-08  4.2543e-07  1:28:58 14347
0.
 265654  9.8515e-04  4.5591e-04  2.2058e-03  6.8078e-04  4.4053e-08  4.2511e-07  1:59:00 14346
0.
 265655  9.7877e-04  4.5424e-04  2.1996e-03  6.7724e-04  4.4049e-08  4.2474e-07  1:35:11 14345
0.
 265656  9.7276e-04  4.5277e-04  2.1944e-03  6.7389e-04  4.4047e-08  4.2443e-07  2:03:57 14344
0.
 265657  9.6684e-04  4.5153e-04  2.1904e-03  6.7044e-04  4.4046e-08  4.2410e-07  1:39:10 14343
0.
 265658  9.6133e-04  4.5049e-04  2.1874e-03  6.6720e-04  4.4047e-08  4.2380e-07  2:07:08 14342
0.

  iter  continuity  x-velocity  y-velocity      energy           k     epsilon     time/iter
 265659  9.5616e-04  4.4966e-04  2.1855e-03  6.6411e-04  4.4046e-08  4.2352e-07  1:41:42 14341
0.
 265660  9.5132e-04  4.4908e-04  2.1841e-03  6.6117e-04  4.4045e-08  4.2329e-07  1:21:21 14340
0.
 265661  9.4678e-04  4.4875e-04  2.1792e-03  6.5835e-04  4.4042e-08  4.2310e-07  1:52:52 14339
0.
 265662  9.4257e-04  4.4863e-04  2.1735e-03  6.5570e-04  4.4040e-08  4.2294e-07  1:30:18 14338
0.
 265663  9.3866e-04  4.4874e-04  2.1690e-03  6.5318e-04  4.4038e-08  4.2283e-07  2:00:01 14337
0.
 265664  9.3501e-04  4.4904e-04  2.1658e-03  6.5076e-04  4.4038e-08  4.2275e-07  1:36:00 14336
0.
 265665  9.3147e-04  4.4948e-04  2.1638e-03  6.4829e-04  4.4037e-08  4.2265e-07  1:16:48 14335
0.
 265666  9.2775e-04  4.5026e-04  2.1628e-03  6.4553e-04  4.4038e-08  4.2255e-07  1:49:13 14334
0.
 265667  9.2437e-04  4.5136e-04  2.1635e-03  6.4301e-04  4.4037e-08  4.2243e-07  1:27:22 14333
0.
 265668  9.2127e-04  4.5278e-04  2.1658e-03  6.4068e-04  4.4035e-08  4.2231e-07  1:57:40 14332
0.
 265669  9.1838e-04  4.5456e-04  2.1695e-03  6.3848e-04  4.4033e-08  4.2217e-07  1:34:07 14331
0.

  iter  continuity  x-velocity  y-velocity      energy           k     epsilon     time/iter
 265670  9.1591e-04  4.5676e-04  2.1746e-03  6.3665e-04  4.4031e-08  4.2203e-07  2:03:04 14330
0.
 265671  9.1388e-04  4.5938e-04  2.1810e-03  6.3522e-04  4.4028e-08  4.2194e-07  1:38:26 14329
0.
 265672  9.1233e-04  4.6243e-04  2.1883e-03  6.3424e-04  4.4027e-08  4.2188e-07  1:18:45 14328
0.
 265673  9.1173e-04  4.6621e-04  2.1962e-03  6.3418e-04  4.4029e-08  4.2186e-07  1:50:45 14327
0.
 265674  9.1170e-04  4.7043e-04  2.2038e-03  6.3467e-04  4.4033e-08  4.2183e-07  1:28:36 14326
0.
 265675  9.1223e-04  4.7505e-04  2.2126e-03  6.3564e-04  4.4037e-08  4.2182e-07  1:58:37 14325
0.
 265676  9.1327e-04  4.8003e-04  2.2224e-03  6.3707e-04  4.4042e-08  4.2182e-07  1:34:53 14324
0.
 265677  9.1484e-04  4.8530e-04  2.2333e-03  6.3897e-04  4.4044e-08  4.2182e-07  2:03:39 14323
0.
 265678  9.1681e-04  4.9064e-04  2.2449e-03  6.4116e-04  4.4047e-08  4.2180e-07  1:38:55 14322
0.
 265679  9.1833e-04  4.9596e-04  2.2553e-03  6.4283e-04  4.4052e-08  4.2176e-07  1:19:07 14321
0.
 265680  9.2023e-04  4.9860e-04  2.2652e-03  6.4462e-04  4.4055e-08  4.2172e-07  1:51:02 14320
0.

  iter  continuity  x-velocity  y-velocity      energy           k     epsilon     time/iter
 265681  9.2227e-04  4.9955e-04  2.2754e-03  6.4638e-04  4.4056e-08  4.2169e-07  1:28:49 14319
0.
 265682  9.2426e-04  5.0091e-04  2.2855e-03  6.4809e-04  4.4056e-08  4.2168e-07  1:58:47 14318
0.
 265683  9.2655e-04  5.0286e-04  2.2951e-03  6.5006e-04  4.4058e-08  4.2167e-07  1:35:01 14317
0.
 265684  9.2933e-04  5.0559e-04  2.3039e-03  6.5242e-04  4.4059e-08  4.2165e-07  2:03:44 14316
0.
 265685  9.3260e-04  5.0958e-04  2.3128e-03  6.5517e-04  4.4064e-08  4.2164e-07  1:38:58 14315
0.
 265686  9.3648e-04  5.1521e-04  2.3218e-03  6.5844e-04  4.4070e-08  4.2165e-07  1:19:10 14314
0.
 265687  9.4099e-04  5.2242e-04  2.3318e-03  6.6223e-04  4.4075e-08  4.2169e-07  1:51:03 14313
0.
 265688  9.4616e-04  5.3123e-04  2.3418e-03  6.6662e-04  4.4078e-08  4.2177e-07  1:28:50 14312
0.
 265689  9.5197e-04  5.4152e-04  2.3509e-03  6.7165e-04  4.4081e-08  4.2189e-07  1:58:46 14311
0.
 265690  9.5815e-04  5.5309e-04  2.3586e-03  6.7700e-04  4.4087e-08  4.2204e-07  1:35:00 14310
0.
 265691  9.6457e-04  5.6549e-04  2.3650e-03  6.8242e-04  4.4093e-08  4.2224e-07  1:16:00 14309
0.

  iter  continuity  x-velocity  y-velocity      energy           k     epsilon     time/iter
 265692  9.7110e-04  5.7841e-04  2.3696e-03  6.8802e-04  4.4102e-08  4.2248e-07  1:48:29 14308
0.
 265693  9.7777e-04  5.9202e-04  2.3741e-03  6.9366e-04  4.4109e-08  4.2272e-07  1:26:47 14307
0.
 265694  9.8470e-04  6.0591e-04  2.3762e-03  6.9939e-04  4.4118e-08  4.2298e-07  1:57:07 14306
0.
 265695  9.9196e-04  6.2100e-04  2.3780e-03  7.0539e-04  4.4126e-08  4.2321e-07  1:33:41 14305
0.
 265696  9.9989e-04  6.4224e-04  2.3817e-03  7.1197e-04  4.4135e-08  4.2344e-07  2:02:37 14304
0.
 265697  1.0088e-03  6.6481e-04  2.3886e-03  7.1973e-04  4.4144e-08  4.2367e-07  1:38:05 14303
0.
 265698  1.0186e-03  6.8818e-04  2.3992e-03  7.2825e-04  4.4155e-08  4.2384e-07  2:06:08 14302
0.
 265699  1.0323e-03  7.2148e-04  2.4115e-03  7.4235e-04  4.4166e-08  4.2399e-07  1:40:54 14301
0.
 265700  1.0560e-03  7.6912e-04  2.4239e-03  7.6884e-04  4.4177e-08  4.2413e-07  1:20:43 14300
0.
 265701  1.0854e-03  8.2018e-04  2.4407e-03  7.9978e-04  4.4190e-08  4.2424e-07  1:52:14 14299
0.
 265702  1.1108e-03  8.7122e-04  2.4598e-03  8.2581e-04  4.4199e-08  4.2434e-07  1:29:47 14298
0.

  iter  continuity  x-velocity  y-velocity      energy           k     epsilon     time/iter
 265703  1.1372e-03  9.2152e-04  2.4816e-03  8.5239e-04  4.4207e-08  4.2446e-07  1:59:29 14297
0.
 265704  1.1642e-03  9.7059e-04  2.5090e-03  8.7805e-04  4.4216e-08  4.2457e-07  1:35:34 14296
0.
 265705  1.1910e-03  1.0167e-03  2.5417e-03  9.0247e-04  4.4222e-08  4.2463e-07  2:04:06 14295
0.
 265706  1.2143e-03  1.0559e-03  2.5791e-03  9.2330e-04  4.4227e-08  4.2467e-07  1:39:17 14294
0.
 265707  1.2150e-03  1.0457e-03  2.6191e-03  9.1852e-04  4.4237e-08  4.2477e-07  1:19:25 14293
0.
 265708  1.2060e-03  1.0193e-03  2.6579e-03  9.0398e-04  4.4256e-08  4.2483e-07  1:51:10 14292
0.
 265709  1.2073e-03  1.0251e-03  2.6961e-03  9.0449e-04  4.4273e-08  4.2490e-07  1:28:56 14291
0.
 265710  1.2179e-03  1.0516e-03  2.7360e-03  9.1740e-04  4.4290e-08  4.2499e-07  1:58:46 14290
0.
 265711  1.2281e-03  1.0661e-03  2.7823e-03  9.2833e-04  4.4306e-08  4.2503e-07  1:35:01 14289
0.
 265712  1.2296e-03  1.0416e-03  2.8406e-03  9.2674e-04  4.4315e-08  4.2506e-07  2:03:38 14288
0.
 265713  1.2222e-03  1.0025e-03  2.9072e-03  9.1475e-04  4.4321e-08  4.2511e-07  1:38:54 14287
0.

  iter  continuity  x-velocity  y-velocity      energy           k     epsilon     time/iter
 265714  1.2026e-03  9.4303e-04  2.9786e-03  8.8961e-04  4.4324e-08  4.2518e-07  1:19:07 14286
0.
 265715  1.1778e-03  8.7079e-04  3.0453e-03  8.6016e-04  4.4323e-08  4.2523e-07  1:50:54 14285
0.
 265716  1.1574e-03  8.0058e-04  3.0986e-03  8.3670e-04  4.4320e-08  4.2532e-07  1:28:43 14284
0.
 265717  1.1459e-03  7.4196e-04  3.1341e-03  8.2157e-04  4.4317e-08  4.2535e-07  1:58:35 14283
0.
 265718  1.1401e-03  6.9671e-04  3.1642e-03  8.1127e-04  4.4311e-08  4.2538e-07  1:34:51 14282
0.
 265719  1.1383e-03  6.6857e-04  3.1813e-03  8.0727e-04  4.4307e-08  4.2537e-07  2:03:29 14281
0.
 265720  1.1416e-03  6.5597e-04  3.1837e-03  8.0927e-04  4.4307e-08  4.2535e-07  1:38:47 14280
0.
 265721  1.1502e-03  6.5639e-04  3.1754e-03  8.1708e-04  4.4305e-08  4.2530e-07  1:19:01 14279
0.
 265722  1.1627e-03  6.6824e-04  3.1591e-03  8.2866e-04  4.4302e-08  4.2528e-07  1:50:48 14278
0.
 265723  1.1788e-03  6.8975e-04  3.1384e-03  8.4372e-04  4.4301e-08  4.2527e-07  1:28:38 14277
0.
[...]
0.
 266140  1.0740e-03  4.5890e-04  2.4883e-03  7.4708e-04  4.2674e-08  4.2182e-07  1:58:59 13860
0.
 266141  1.0700e-03  4.5685e-04  2.4917e-03  7.4461e-04  4.2669e-08  4.2148e-07  1:35:11 13859
0.
 266142  1.0665e-03  4.5484e-04  2.4920e-03  7.4250e-04  4.2663e-08  4.2111e-07  1:16:08 13858
0.

  iter  continuity  x-velocity  y-velocity      energy           k     epsilon     time/iter
 266143  1.0634e-03  4.5321e-04  2.4894e-03  7.4080e-04  4.2657e-08  4.2073e-07  1:47:06 13857
0.
 266144  1.0607e-03  4.5177e-04  2.4830e-03  7.3938e-04  4.2650e-08  4.2039e-07  1:25:40 13856
0.
 266145  1.0567e-03  4.5000e-04  2.4730e-03  7.3676e-04  4.2639e-08  4.2002e-07  1:54:43 13855
0.
 266146  1.0530e-03  4.4844e-04  2.4609e-03  7.3436e-04  4.2625e-08  4.1961e-07  1:31:46 13854
0.
 266147  1.0496e-03  4.4702e-04  2.4470e-03  7.3220e-04  4.2614e-08  4.1921e-07  1:59:35 13853
0.
 266148  1.0464e-03  4.4568e-04  2.4319e-03  7.3026e-04  4.2604e-08  4.1902e-07  1:35:40 13852
0.
 266149  1.0434e-03  4.4437e-04  2.4161e-03  7.2849e-04  4.2594e-08  4.1881e-07  1:16:31 13851
0.
 266150  1.0406e-03  4.4307e-04  2.4003e-03  7.2684e-04  4.2583e-08  4.1859e-07  1:47:23 13850
0.
 266151  1.0380e-03  4.4173e-04  2.3846e-03  7.2531e-04  4.2572e-08  4.1833e-07  1:25:54 13849
0.
 266152  1.0362e-03  4.4017e-04  2.3689e-03  7.2454e-04  4.2562e-08  4.1804e-07  1:54:52 13848
0.
 266153  1.0345e-03  4.3888e-04  2.3537e-03  7.2394e-04  4.2551e-08  4.1772e-07  1:31:54 13847
0.

  iter  continuity  x-velocity  y-velocity      energy           k     epsilon     time/iter
 266154  1.0329e-03  4.3782e-04  2.3391e-03  7.2333e-04  4.2543e-08  4.1741e-07  1:59:40 13846
0.
 266155  1.0312e-03  4.3691e-04  2.3253e-03  7.2261e-04  4.2534e-08  4.1716e-07  1:35:43 13845
0.
 266156  1.0293e-03  4.3600e-04  2.3120e-03  7.2161e-04  4.2523e-08  4.1687e-07  1:16:34 13844
0.
 266157  1.0272e-03  4.3517e-04  2.2995e-03  7.2031e-04  4.2514e-08  4.1677e-07  1:47:24 13843
0.
 266158  1.0248e-03  4.3439e-04  2.2887e-03  7.1863e-04  4.2502e-08  4.1664e-07  1:25:55 13842
0.
 266159  1.0222e-03  4.3362e-04  2.2802e-03  7.1658e-04  4.2488e-08  4.1642e-07  1:54:52 13841
0.
 266160  1.0193e-03  4.3286e-04  2.2737e-03  7.1418e-04  4.2475e-08  4.1610e-07  1:31:53 13840
0.
 266161  1.0159e-03  4.3214e-04  2.2691e-03  7.1124e-04  4.2465e-08  4.1576e-07  1:59:38 13839
0.
 266162  1.0121e-03  4.3148e-04  2.2660e-03  7.0788e-04  4.2455e-08  4.1540e-07  1:35:42 13838
0.
 266163  1.0082e-03  4.3085e-04  2.2639e-03  7.0445e-04  4.2445e-08  4.1509e-07  1:16:33 13837
0.
 266164  1.0043e-03  4.3027e-04  2.2622e-03  7.0105e-04  4.2434e-08  4.1469e-07  1:47:21 13836
0.

  iter  continuity  x-velocity  y-velocity      energy           k     epsilon     time/iter
 266165  1.0004e-03  4.2977e-04  2.2599e-03  6.9777e-04  4.2427e-08  4.1425e-07  1:25:53 13835
0.
 266166  9.9672e-04  4.2936e-04  2.2574e-03  6.9469e-04  4.2417e-08  4.1391e-07  1:54:49 13834
0.
 266167  9.9322e-04  4.2896e-04  2.2546e-03  6.9188e-04  4.2404e-08  4.1353e-07  1:31:51 13833
0.
 266168  9.9043e-04  4.2901e-04  2.2503e-03  6.8985e-04  4.2388e-08  4.1316e-07  1:59:35 13832
0.
 266169  9.8803e-04  4.2922e-04  2.2455e-03  6.8824e-04  4.2370e-08  4.1285e-07  1:35:39 13831
0.
 266170  9.8593e-04  4.2953e-04  2.2406e-03  6.8696e-04  4.2353e-08  4.1260e-07  2:02:37 13830
0.
 266171  9.8410e-04  4.2986e-04  2.2357e-03  6.8592e-04  4.2337e-08  4.1238e-07  1:38:05 13829
0.
 266172  9.8249e-04  4.3016e-04  2.2304e-03  6.8507e-04  4.2321e-08  4.1216e-07  1:18:28 13828
0.
 266173  9.8108e-04  4.3041e-04  2.2255e-03  6.8437e-04  4.2310e-08  4.1189e-07  1:48:51 13827
0.
 266174  9.7983e-04  4.3063e-04  2.2221e-03  6.8376e-04  4.2298e-08  4.1165e-07  1:27:05 13826
0.
 266175  9.7899e-04  4.3058e-04  2.2200e-03  6.8347e-04  4.2285e-08  4.1140e-07  1:55:44 13825
0.

  iter  continuity  x-velocity  y-velocity      energy           k     epsilon     time/iter
 266176  9.7851e-04  4.3052e-04  2.2187e-03  6.8345e-04  4.2270e-08  4.1114e-07  1:32:35 13824
0.
 266177  9.7800e-04  4.3051e-04  2.2171e-03  6.8333e-04  4.2256e-08  4.1084e-07  1:14:04 13823
0.
 266178  9.7742e-04  4.3044e-04  2.2164e-03  6.8306e-04  4.2243e-08  4.1053e-07  1:45:19 13822
0.
 266179  9.7685e-04  4.3040e-04  2.2164e-03  6.8275e-04  4.2233e-08  4.1020e-07  1:24:15 13821
0.
 266180  9.7638e-04  4.3038e-04  2.2172e-03  6.8245e-04  4.2225e-08  4.0989e-07  1:53:28 13820
0.
 266181  9.7599e-04  4.3046e-04  2.2186e-03  6.8220e-04  4.2214e-08  4.0955e-07  1:30:46 13819
0.
 266182  9.7572e-04  4.3063e-04  2.2204e-03  6.8200e-04  4.2203e-08  4.0917e-07  1:58:40 13818
0.
 266183  9.7562e-04  4.3087e-04  2.2226e-03  6.8192e-04  4.2194e-08  4.0879e-07  1:34:56 13817
0.
 266184  9.7572e-04  4.3120e-04  2.2250e-03  6.8199e-04  4.2183e-08  4.0857e-07  1:15:56 13816
0.
 266185  9.7605e-04  4.3159e-04  2.2278e-03  6.8225e-04  4.2174e-08  4.0846e-07  1:46:48 13815
0.
 266186  9.7662e-04  4.3203e-04  2.2305e-03  6.8270e-04  4.2165e-08  4.0832e-07  1:25:26 13814
0.

  iter  continuity  x-velocity  y-velocity      energy           k     epsilon     time/iter
 266187  9.7745e-04  4.3250e-04  2.2326e-03  6.8337e-04  4.2158e-08  4.0817e-07  1:54:23 13813
0.
 266188  9.7858e-04  4.3301e-04  2.2341e-03  6.8426e-04  4.2151e-08  4.0800e-07  1:31:30 13812
0.
 266189  9.7998e-04  4.3355e-04  2.2356e-03  6.8536e-04  4.2144e-08  4.0783e-07  1:59:14 13811
0.
 266190  9.8180e-04  4.3424e-04  2.2368e-03  6.8681e-04  4.2134e-08  4.0763e-07  1:35:23 13810
0.
 266191  9.8468e-04  4.3552e-04  2.2377e-03  6.8929e-04  4.2123e-08  4.0739e-07  1:16:18 13809
0.
 266192  9.8788e-04  4.3692e-04  2.2384e-03  6.9201e-04  4.2114e-08  4.0721e-07  1:47:04 13808
0.
 266193  9.9131e-04  4.3833e-04  2.2392e-03  6.9483e-04  4.2106e-08  4.0702e-07  1:25:38 13807
0.
 266194  9.9496e-04  4.3969e-04  2.2409e-03  6.9776e-04  4.2097e-08  4.0684e-07  1:54:32 13806
0.
 266195  9.9872e-04  4.4098e-04  2.2436e-03  7.0066e-04  4.2085e-08  4.0660e-07  1:31:37 13805
0.
 266196  1.0025e-03  4.4219e-04  2.2475e-03  7.0350e-04  4.2074e-08  4.0630e-07  1:59:18 13804
0.
 266197  1.0064e-03  4.4333e-04  2.2528e-03  7.0624e-04  4.2065e-08  4.0603e-07  1:35:26 13803
0.

  iter  continuity  x-velocity  y-velocity      energy           k     epsilon     time/iter
 266198  1.0102e-03  4.4445e-04  2.2594e-03  7.0887e-04  4.2060e-08  4.0596e-07  1:16:20 13802
0.
 266199  1.0141e-03  4.4556e-04  2.2673e-03  7.1144e-04  4.2055e-08  4.0588e-07  1:47:04 13801
0.
 266200  1.0180e-03  4.4666e-04  2.2766e-03  7.1387e-04  4.2050e-08  4.0582e-07  1:25:39 13800
0.
 266201  1.0217e-03  4.4778e-04  2.2871e-03  7.1616e-04  4.2046e-08  4.0574e-07  1:54:31 13799
0.
 266202  1.0261e-03  4.4846e-04  2.2987e-03  7.1892e-04  4.2041e-08  4.0565e-07  1:31:36 13798
0.
 266203  1.0299e-03  4.4948e-04  2.3107e-03  7.2119e-04  4.2033e-08  4.0564e-07  1:13:17 13797
0.
 266204  1.0336e-03  4.5078e-04  2.3227e-03  7.2323e-04  4.2027e-08  4.0563e-07  1:44:36 13796
0.
 266205  1.0370e-03  4.5227e-04  2.3348e-03  7.2514e-04  4.2023e-08  4.0558e-07  1:23:41 13795
0.
 266206  1.0406e-03  4.5396e-04  2.3471e-03  7.2713e-04  4.2022e-08  4.0555e-07  1:52:55 13794
0.
 266207  1.0441e-03  4.5569e-04  2.3597e-03  7.2916e-04  4.2020e-08  4.0549e-07  1:30:20 13793
0.
 266208  1.0476e-03  4.5741e-04  2.3728e-03  7.3112e-04  4.2018e-08  4.0536e-07  1:58:14 13792
0.

  iter  continuity  x-velocity  y-velocity      energy           k     epsilon     time/iter
 266209  1.0509e-03  4.5906e-04  2.3863e-03  7.3303e-04  4.2013e-08  4.0519e-07  1:34:35 13791
0.
 266210  1.0548e-03  4.6098e-04  2.3999e-03  7.3550e-04  4.2008e-08  4.0499e-07  1:15:39 13790
0.
 266211  1.0591e-03  4.6307e-04  2.4145e-03  7.3840e-04  4.2006e-08  4.0476e-07  1:46:29 13789
0.
 266212  1.0633e-03  4.6506e-04  2.4303e-03  7.4131e-04  4.2001e-08  4.0451e-07  1:25:11 13788
0.
 266213  1.0675e-03  4.6692e-04  2.4466e-03  7.4420e-04  4.1997e-08  4.0424e-07  1:54:06 13787
0.
 266214  1.0717e-03  4.6864e-04  2.4631e-03  7.4703e-04  4.1993e-08  4.0391e-07  1:31:16 13786
0.
 266215  1.0758e-03  4.7020e-04  2.4798e-03  7.4982e-04  4.1987e-08  4.0359e-07  1:58:58 13785
0.
 266216  1.0798e-03  4.7159e-04  2.4966e-03  7.5253e-04  4.1978e-08  4.0329e-07  1:35:10 13784
0.
 266217  1.0837e-03  4.7280e-04  2.5133e-03  7.5520e-04  4.1969e-08  4.0296e-07  2:02:04 13783
0.
 266218  1.0875e-03  4.7382e-04  2.5294e-03  7.5783e-04  4.1961e-08  4.0269e-07  1:37:39 13782
0.
 266219  1.0913e-03  4.7466e-04  2.5449e-03  7.6045e-04  4.1953e-08  4.0245e-07  1:18:07 13781
0.

  iter  continuity  x-velocity  y-velocity      energy           k     epsilon     time/iter
 266220  1.0951e-03  4.7534e-04  2.5596e-03  7.6303e-04  4.1943e-08  4.0220e-07  1:48:25 13780
0.
 266221  1.0987e-03  4.7584e-04  2.5735e-03  7.6556e-04  4.1938e-08  4.0193e-07  1:26:44 13779
0.
 266222  1.1023e-03  4.7617e-04  2.5867e-03  7.6800e-04  4.1930e-08  4.0176e-07  1:55:18 13778
0.
 266223  1.1079e-03  4.7563e-04  2.5990e-03  7.7248e-04  4.1919e-08  4.0166e-07  1:32:14 13777
0.
 266224  1.1124e-03  4.7524e-04  2.6102e-03  7.7585e-04  4.1907e-08  4.0155e-07  1:13:47 13776
0.
 266225  1.1152e-03  4.7422e-04  2.6209e-03  7.7752e-04  4.1897e-08  4.0146e-07  1:44:56 13775
0.
 266226  1.1173e-03  4.7335e-04  2.6311e-03  7.7866e-04  4.1889e-08  4.0133e-07  1:23:57 13774
0.
 266227  1.1190e-03  4.7251e-04  2.6407e-03  7.7939e-04  4.1882e-08  4.0115e-07  1:53:04 13773
0.
 266228  1.1203e-03  4.7163e-04  2.6530e-03  7.7988e-04  4.1875e-08  4.0093e-07  1:30:27 13772
0.
 266229  1.1215e-03  4.7073e-04  2.6674e-03  7.8026e-04  4.1868e-08  4.0071e-07  1:58:15 13771
0.
 266230  1.1229e-03  4.7000e-04  2.6819e-03  7.8112e-04  4.1864e-08  4.0047e-07  1:34:36 13770
0.

  iter  continuity  x-velocity  y-velocity      energy           k     epsilon     time/iter
 266231  1.1244e-03  4.6924e-04  2.6964e-03  7.8202e-04  4.1857e-08  4.0019e-07  1:15:40 13769
0.
 266232  1.1257e-03  4.6843e-04  2.7116e-03  7.8296e-04  4.1847e-08  3.9993e-07  1:46:26 13768
0.
 266233  1.1270e-03  4.6755e-04  2.7254e-03  7.8389e-04  4.1838e-08  3.9973e-07  1:25:08 13767
0.
 266234  1.1280e-03  4.6661e-04  2.7379e-03  7.8472e-04  4.1828e-08  3.9954e-07  1:53:59 13766
0.
 266235  1.1288e-03  4.6557e-04  2.7493e-03  7.8536e-04  4.1818e-08  3.9937e-07  1:31:11 13765
0.
 266236  1.1295e-03  4.6441e-04  2.7559e-03  7.8589e-04  4.1810e-08  3.9916e-07  1:58:49 13764
0.
 266237  1.1300e-03  4.6307e-04  2.7622e-03  7.8640e-04  4.1805e-08  3.9898e-07  1:35:03 13763
0.
 266238  1.1304e-03  4.6155e-04  2.7704e-03  7.8677e-04  4.1805e-08  3.9881e-07  1:16:02 13762
0.
 266239  1.1306e-03  4.5990e-04  2.7899e-03  7.8699e-04  4.1806e-08  3.9858e-07  1:46:42 13761
0.
 266240  1.1307e-03  4.5820e-04  2.8073e-03  7.8708e-04  4.1807e-08  3.9835e-07  1:25:21 13760
0.
 266241  1.1304e-03  4.5647e-04  2.8143e-03  7.8691e-04  4.1808e-08  3.9813e-07  1:54:08 13759
0.

  iter  continuity  x-velocity  y-velocity      energy           k     epsilon     time/iter
 266242  1.1302e-03  4.5489e-04  2.8193e-03  7.8675e-04  4.1806e-08  3.9796e-07  1:31:18 13758
0.
 266243  1.1308e-03  4.5322e-04  2.8243e-03  7.8747e-04  4.1804e-08  3.9779e-07  1:13:02 13757
0.
 266244  1.1320e-03  4.5184e-04  2.8418e-03  7.8873e-04  4.1803e-08  3.9764e-07  1:44:17 13756
0.
 266245  1.1323e-03  4.5076e-04  2.8559e-03  7.8913e-04  4.1801e-08  3.9743e-07  1:23:25 13755
0.
 266246  1.1319e-03  4.4984e-04  2.8666e-03  7.8884e-04  4.1799e-08  3.9718e-07  1:52:35 13754
0.
 266247  1.1309e-03  4.4908e-04  2.8741e-03  7.8800e-04  4.1795e-08  3.9690e-07  1:30:03 13753
0.
 266248  1.1296e-03  4.4850e-04  2.8787e-03  7.8676e-04  4.1793e-08  3.9657e-07  1:57:53 13752
0.
 266249  1.1280e-03  4.4808e-04  2.8806e-03  7.8523e-04  4.1794e-08  3.9617e-07  1:34:18 13751
0.
 266250  1.1263e-03  4.4789e-04  2.8798e-03  7.8368e-04  4.1795e-08  3.9569e-07  1:15:26 13750
0.
 266251  1.1245e-03  4.4795e-04  2.8801e-03  7.8209e-04  4.1793e-08  3.9514e-07  1:46:10 13749
0.
 266252  1.1226e-03  4.4823e-04  2.8798e-03  7.8035e-04  4.1790e-08  3.9457e-07  1:24:56 13748
0.

  iter  continuity  x-velocity  y-velocity      energy           k     epsilon     time/iter
 266253  1.1207e-03  4.4869e-04  2.8735e-03  7.7865e-04  4.1788e-08  3.9399e-07  1:53:46 13747
0.
 266254  1.1187e-03  4.4922e-04  2.8639e-03  7.7695e-04  4.1780e-08  3.9337e-07  1:31:00 13746
0.
 266255  1.1167e-03  4.4976e-04  2.8521e-03  7.7521e-04  4.1773e-08  3.9273e-07  1:58:37 13745
0.
 266256  1.1148e-03  4.5024e-04  2.8385e-03  7.7346e-04  4.1767e-08  3.9202e-07  1:34:53 13744
0.
 266257  1.1129e-03  4.5066e-04  2.8238e-03  7.7176e-04  4.1761e-08  3.9130e-07  2:01:43 13743
0.
 266258  1.1111e-03  4.5102e-04  2.8085e-03  7.7018e-04  4.1755e-08  3.9061e-07  1:37:22 13742
0.
 266259  1.1095e-03  4.5137e-04  2.7936e-03  7.6874e-04  4.1750e-08  3.8992e-07  1:17:53 13741
0.
 266260  1.1080e-03  4.5165e-04  2.7873e-03  7.6746e-04  4.1745e-08  3.8919e-07  1:48:06 13740
0.
 266261  1.1069e-03  4.5185e-04  2.7828e-03  7.6647e-04  4.1741e-08  3.8870e-07  1:26:29 13739
0.
 266262  1.1059e-03  4.5200e-04  2.7791e-03  7.6563e-04  4.1746e-08  3.8827e-07  1:54:58 13738
0.
 266263  1.1051e-03  4.5219e-04  2.7756e-03  7.6499e-04  4.1754e-08  3.8794e-07  1:31:58 13737
0.

  iter  continuity  x-velocity  y-velocity      energy           k     epsilon     time/iter
 266264  1.1047e-03  4.5244e-04  2.7569e-03  7.6464e-04  4.1762e-08  3.8784e-07  1:59:21 13736
0.
 266265  1.1046e-03  4.5287e-04  2.7372e-03  7.6476e-04  4.1770e-08  3.8816e-07  1:35:29 13735
0.
 266266  1.1051e-03  4.5343e-04  2.7179e-03  7.6532e-04  4.1779e-08  3.8858e-07  1:16:23 13734
0.
 266267  1.1067e-03  4.5426e-04  2.7002e-03  7.6700e-04  4.1787e-08  3.8918e-07  1:46:52 13733
0.
 266268  1.1099e-03  4.5550e-04  2.6867e-03  7.7028e-04  4.1796e-08  3.8983e-07  1:25:30 13732
0.
 266269  1.1129e-03  4.5642e-04  2.6781e-03  7.7331e-04  4.1803e-08  3.9049e-07  1:54:10 13731
0.
 266270  1.1160e-03  4.5698e-04  2.6761e-03  7.7619e-04  4.1809e-08  3.9115e-07  1:31:19 13730
0.
 266271  1.1192e-03  4.5728e-04  2.6792e-03  7.7910e-04  4.1819e-08  3.9182e-07  1:58:49 13729
0.
 266272  1.1226e-03  4.5732e-04  2.6877e-03  7.8206e-04  4.1831e-08  3.9242e-07  1:35:03 13728
0.
 266273  1.1262e-03  4.5717e-04  2.7021e-03  7.8509e-04  4.1844e-08  3.9296e-07  1:16:02 13727
0.
 266274  1.1300e-03  4.5697e-04  2.7211e-03  7.8829e-04  4.1857e-08  3.9354e-07  1:46:34 13726
0.

  iter  continuity  x-velocity  y-velocity      energy           k     epsilon     time/iter
 266275  1.1342e-03  4.5679e-04  2.7271e-03  7.9168e-04  4.1872e-08  3.9412e-07  1:25:15 13725
0.
 266276  1.1383e-03  4.5665e-04  2.7330e-03  7.9504e-04  4.1886e-08  3.9484e-07  1:53:57 13724
0.
 266277  1.1407e-03  4.5604e-04  2.7386e-03  7.9656e-04  4.1902e-08  3.9560e-07  1:31:09 13723
0.
 266278  1.1438e-03  4.5632e-04  2.7447e-03  7.9891e-04  4.1918e-08  3.9638e-07  1:58:39 13722
0.
 266279  1.1476e-03  4.5716e-04  2.7514e-03  8.0194e-04  4.1938e-08  3.9725e-07  1:34:55 13721
0.
 266280  1.1520e-03  4.5838e-04  2.7592e-03  8.0547e-04  4.1962e-08  3.9808e-07  1:15:56 13720
0.
 266281  1.1568e-03  4.5981e-04  2.7636e-03  8.0940e-04  4.1990e-08  3.9894e-07  1:46:28 13719
0.
 266282  1.1620e-03  4.6131e-04  2.7721e-03  8.1363e-04  4.2017e-08  3.9976e-07  1:25:10 13718
0.
 266283  1.1674e-03  4.6281e-04  2.7838e-03  8.1803e-04  4.2045e-08  4.0067e-07  1:53:51 13717
0.
 266284  1.1730e-03  4.6424e-04  2.7981e-03  8.2253e-04  4.2074e-08  4.0159e-07  1:31:05 13716
0.
 266285  1.1787e-03  4.6560e-04  2.8113e-03  8.2704e-04  4.2106e-08  4.0245e-07  1:58:34 13715
0.

  iter  continuity  x-velocity  y-velocity      energy           k     epsilon     time/iter
 266286  1.1844e-03  4.6691e-04  2.8169e-03  8.3156e-04  4.2139e-08  4.0326e-07  1:34:51 13714
0.
 266287  1.1902e-03  4.6818e-04  2.8174e-03  8.3604e-04  4.2174e-08  4.0405e-07  1:15:52 13713
0.
 266288  1.1960e-03  4.6949e-04  2.8214e-03  8.4049e-04  4.2208e-08  4.0478e-07  1:46:24 13712
0.
 266289  1.2016e-03  4.7089e-04  2.8278e-03  8.4475e-04  4.2242e-08  4.0570e-07  1:25:07 13711
0.
 266290  1.2070e-03  4.7239e-04  2.8352e-03  8.4883e-04  4.2278e-08  4.0670e-07  1:53:47 13710
0.
 266291  1.2121e-03  4.7401e-04  2.8432e-03  8.5266e-04  4.2311e-08  4.0766e-07  1:31:01 13709
0.
 266292  1.2170e-03  4.7571e-04  2.8514e-03  8.5621e-04  4.2343e-08  4.0860e-07  1:12:49 13708
0.
 266293  1.2215e-03  4.7748e-04  2.8595e-03  8.5945e-04  4.2379e-08  4.0952e-07  1:43:56 13707
0.
 266294  1.2257e-03  4.7929e-04  2.8673e-03  8.6244e-04  4.2414e-08  4.1035e-07  1:23:09 13706
0.
 266295  1.2295e-03  4.8105e-04  2.8738e-03  8.6511e-04  4.2453e-08  4.1118e-07  1:52:12 13705
0.
 266296  1.2329e-03  4.8258e-04  2.8765e-03  8.6731e-04  4.2490e-08  4.1207e-07  1:29:45 13704
0.

  iter  continuity  x-velocity  y-velocity      energy           k     epsilon     time/iter
 266297  1.2359e-03  4.8390e-04  2.8800e-03  8.6913e-04  4.2525e-08  4.1295e-07  1:57:28 13703
0.
 266298  1.2384e-03  4.8502e-04  2.8839e-03  8.7051e-04  4.2559e-08  4.1382e-07  1:33:58 13702
0.
 266299  1.2403e-03  4.8613e-04  2.8845e-03  8.7143e-04  4.2593e-08  4.1472e-07  2:00:50 13701
0.
 266300  1.2418e-03  4.8777e-04  2.8755e-03  8.7200e-04  4.2632e-08  4.1560e-07  1:36:40 13700
0.
 266301  1.2429e-03  4.8914e-04  2.8628e-03  8.7222e-04  4.2675e-08  4.1642e-07  1:17:20 13699
0.
 266302  1.2433e-03  4.9022e-04  2.8466e-03  8.7196e-04  4.2718e-08  4.1733e-07  1:47:31 13698
0.
 266303  1.2431e-03  4.9102e-04  2.8315e-03  8.7117e-04  4.2762e-08  4.1836e-07  1:26:00 13697
0.
 266304  1.2424e-03  4.9166e-04  2.8165e-03  8.6996e-04  4.2807e-08  4.1935e-07  1:54:27 13696
0.
 266305  1.2410e-03  4.9202e-04  2.8022e-03  8.6832e-04  4.2851e-08  4.2029e-07  1:31:33 13695
0.
 266306  1.2390e-03  4.9201e-04  2.7898e-03  8.6612e-04  4.2892e-08  4.2119e-07  1:58:53 13694
0.
 266307  1.2362e-03  4.9161e-04  2.7769e-03  8.6344e-04  4.2933e-08  4.2204e-07  1:35:06 13693
0.

  iter  continuity  x-velocity  y-velocity      energy           k     epsilon     time/iter
 266308  1.2325e-03  4.9119e-04  2.7646e-03  8.6002e-04  4.2975e-08  4.2281e-07  1:16:05 13692
0.
 266309  1.2278e-03  4.9034e-04  2.7480e-03  8.5584e-04  4.3021e-08  4.2351e-07  1:46:30 13691
0.
 266310  1.2221e-03  4.8896e-04  2.7298e-03  8.5097e-04  4.3066e-08  4.2414e-07  1:25:11 13690
0.
 266311  1.2155e-03  4.8709e-04  2.7129e-03  8.4553e-04  4.3107e-08  4.2474e-07  1:53:47 13689
0.
 266312  1.2075e-03  4.8405e-04  2.6968e-03  8.3880e-04  4.3144e-08  4.2529e-07  1:31:01 13688

Interrupting...
0.
 266313  1.1989e-03  4.8061e-04  2.6821e-03  8.3166e-04  4.3177e-08  4.2592e-07  1:58:26 13687
Done.
Writing "| gzip -2cf > SolutionMonitor.gz"...
Writing temporary file C:\\Users\\lockb\\AppData\\Local\\Temp\\flntgz-92762 ...
Done.

Writing "| gzip -2cf > NozzleC_Course.3-1-266313.dat.gz"...
Writing temporary file C:\\Users\\lockb\\AppData\\Local\\Temp\\flntgz-92763 ...
Done.


Performance Timer for 1314 iterations on 1 compute node
  Average wall-clock time per iteration:              0.398 sec
  Global reductions per iteration:                       84 ops
  Global reductions time per iteration:               0.000 sec (0.0%)
  Message count per iteration:                            3 messages
  Data transfer per iteration:                        0.000 MB
  LE solves per iteration:                                2 solves
  LE wall-clock time per iteration:                   0.012 sec (3.1%)
  LE global solves per iteration:                         0 solves
  LE global wall-clock time per iteration:            0.000 sec (0.0%)
  LE global matrix maximum size:                         0
  AMG cycles per iteration:                           2.000 cycles
  Relaxation sweeps per iteration:                        8 sweeps
  Relaxation exchanges per iteration:                     0 exchanges
  LE early protections (stall) per iteration:           0.000 times
  LE early protections (divergence) per iteration:      0.000 times

  Total wall-clock time:                            522.990 sec

