
Build Time: Apr 16 2019 10:49:06 
Executable Path: C:/PROGRA~1/ANSYSI~1/v194/fluent/ntbin/win64/fluent.exe

-------------------------------------------------------------------------------
ID    Hostname        Core  O.S.         PID    Vendor                    
-------------------------------------------------------------------------------
n5    X-ARMS2106PC63  6/12  Windows-x64  12744  Intel(R) Core(TM) i7-8700 
n4    X-ARMS2106PC63  5/12  Windows-x64  14124  Intel(R) Core(TM) i7-8700 
n3    X-ARMS2106PC63  4/12  Windows-x64  10176  Intel(R) Core(TM) i7-8700 
n2    X-ARMS2106PC63  3/12  Windows-x64  13140  Intel(R) Core(TM) i7-8700 
n1    X-ARMS2106PC63  2/12  Windows-x64  10376  Intel(R) Core(TM) i7-8700 
n0*   X-ARMS2106PC63  1/12  Windows-x64  14828  Intel(R) Core(TM) i7-8700 
host  X-ARMS2106PC63        Windows-x64  14644  Intel(R) Core(TM) i7-8700 

MPI Option Selected: ibmmpi
Selected system interconnect: default
-------------------------------------------------------------------------------
Warning: Ignoring WB preference save-post-processing-images
Multicore SMT processors detected. Processor affinity set!
Reading "W:\AAE412\Project\Git\ANSYS_Files\NozzleC\NozzleC_files\dp0\FFF-6\MECH\FFF-6.1.msh"...
Buffering for file scan...

   49741 nodes, binary.
    1320 nodes, binary.
   99780 2D interior faces, zone  1, binary.
     360 2D interior faces, zone  2, binary.
     380 2D wall faces, zone  6, binary.
      80 2D velocity-inlet faces, zone  7, binary.
     380 2D axis faces, zone  8, binary.
     380 2D wall faces, zone  9, binary.
     100 2D velocity-inlet faces, zone 10, binary.
   50400 quadrilateral cells, zone  3, binary.

Building...
     mesh
	auto partitioning mesh by Metis (fast),
	distributing mesh
		parts......,
		faces......,
		nodes......,
		cells......,
        bandwidth reduction using Reverse Cuthill-McKee: 8410/91 = 92.4176
     materials,
     interface,
     domains,
	mixture
     zones,
	ambientinlet
	farfield
	axis
	flowinlet
	nozzlewall
	solid-surface_body
	surface_body
	interior-surface_body
Applying mesh operation "Change Zone Type"

Applying mesh operation "Change Zone Type [ 2 ]"

Applying mesh operation "Change Zone Type [ 3 ]"

Applying mesh operation "Change Zone Type [ 4 ]"
 Setting zone id of farfield to 9.
 Setting zone id of ambientinlet to 10.
 Setting zone id of interior-surface_body to 1.
 Setting zone id of surface_body to 2.
 Setting zone id of nozzlewall to 6.
 Setting zone id of axis to 8.
 Setting zone id of flowinlet to 7.
 Setting zone id of solid-surface_body to 3.
Done.
Setting surface_body (mixture) 
	Warning: can not change thread-type of surface_body(interior) to fluid as new type is not compatible

Ignoring unknown "sources?" var of thread:: surface_body[2]!

Ignoring unknown "source-terms" var of thread:: surface_body[2]!

Ignoring unknown "fixed?" var of thread:: surface_body[2]!

Ignoring unknown "fixes" var of thread:: surface_body[2]!

Ignoring unknown "mrf-motion?" var of thread:: surface_body[2]!

Ignoring unknown "mrf-relative-to-thread" var of thread:: surface_body[2]!

Ignoring unknown "mrf-omega" var of thread:: surface_body[2]!

Ignoring unknown "mrf-grid-x-vel" var of thread:: surface_body[2]!

Ignoring unknown "mrf-grid-y-vel" var of thread:: surface_body[2]!

Ignoring unknown "mrf-udf-zmotion-name" var of thread:: surface_body[2]!

Ignoring unknown "mgrid-relative-to-thread" var of thread:: surface_body[2]!

Ignoring unknown "mgrid-omega" var of thread:: surface_body[2]!

Ignoring unknown "mgrid-grid-x-vel" var of thread:: surface_body[2]!

Ignoring unknown "mgrid-grid-y-vel" var of thread:: surface_body[2]!

Ignoring unknown "mgrid-udf-zmotion-name" var of thread:: surface_body[2]!

Ignoring unknown "deactivated?" var of thread:: surface_body[2]!

Ignoring unknown "laminar?" var of thread:: surface_body[2]!

Ignoring unknown "laminar-mut-zero?" var of thread:: surface_body[2]!

Ignoring unknown "les-embedded-spec" var of thread:: surface_body[2]!

Ignoring unknown "les-embedded-mom-scheme" var of thread:: surface_body[2]!

Ignoring unknown "les-embedded-c-wale" var of thread:: surface_body[2]!

Ignoring unknown "les-embedded-c-smag" var of thread:: surface_body[2]!

Ignoring unknown "porous?" var of thread:: surface_body[2]!

Ignoring unknown "direction-1/x" var of thread:: surface_body[2]!

Ignoring unknown "direction-1/y" var of thread:: surface_body[2]!

Ignoring unknown "porous-r/1" var of thread:: surface_body[2]!

Ignoring unknown "porous-r/2" var of thread:: surface_body[2]!

Ignoring unknown "porous-c/1" var of thread:: surface_body[2]!

Ignoring unknown "porous-c/2" var of thread:: surface_body[2]!

Ignoring unknown "c0" var of thread:: surface_body[2]!

Ignoring unknown "c1" var of thread:: surface_body[2]!

Ignoring unknown "porosity" var of thread:: surface_body[2]!

Ignoring unknown "viscosity-ratio" var of thread:: surface_body[2]!

Ignoring unknown "equib-thermal?" var of thread:: surface_body[2]!

Ignoring unknown "non-equib-thermal?" var of thread:: surface_body[2]!

Ignoring unknown "solid-material" var of thread:: surface_body[2]!

Ignoring unknown "area-density" var of thread:: surface_body[2]!

Ignoring unknown "heat-transfer-coeff" var of thread:: surface_body[2]!
... Done.
Setting farfield (mixture) ... Done.
Setting ambientinlet (mixture) ... Done.
Setting interior-surface_body (mixture) ... Done.
Setting nozzlewall (mixture) ... Done.
Setting axis (mixture) ... Done.
No zone with name wall-surface_body (type wall) (mixture), skipped.

Checking newly created zones for preferred zone IDs...
No zone with name wall-surface_body (type wall) (mixture), skipped.

     parallel,
Done.

Preparing mesh for display...
Warning: Pressure far-field boundary condition can only be used with ideal gas law.
  Please change either the boundary condition type or enable ideal gas law.
  Solver cannot proceed until this is fixed.
	Warning: Pressure far-field boundary condition can only be used with ideal gas law.
  Please change either the boundary condition type or enable ideal gas law.
  Solver cannot proceed until this is fixed.
	Done.
Warning: Pressure far-field boundary condition can only be used with ideal gas law.
  Please change either the boundary condition type or enable ideal gas law.
  Solver cannot proceed until this is fixed.
	"Updating Setup cell..."
"Updating Solution cell..."
Reading W:\\AAE412\\Project\\Git\\ANSYS_Files\\NozzleC\\NozzleC_files\\dp0\\FFF-6\\Fluent\\FFF-6.1.ip...
Reading IP data ...
	x-coord
	y-coord
	pressure
	x-velocity
	y-velocity
	temperature
  Done.
  Initializing values...
  Done.
Writing "| gzip -2cf > FFF-6.1-Setup-Output.cas.gz"...
Writing temporary file C:\\Users\\lockb\\AppData\\Local\\Temp\\flntgz-146442 ...
   50400 quadrilateral cells, zone  3, binary.
   50400 cell partition ids, zone  3, 6 partitions, binary.
   99780 2D interior faces, zone  1, binary.
     360 2D interior faces, zone  2, binary.
     380 2D wall faces, zone  6, binary.
      80 2D pressure-inlet faces, zone  7, binary.
     380 2D axis faces, zone  8, binary.
     380 2D pressure-far-field faces, zone  9, binary.
     100 2D pressure-inlet faces, zone 10, binary.
   51061 nodes, binary.
   51061 node flags, binary.
Done.


  iter  continuity  x-velocity  y-velocity      energy           k       omega     time/iter
pressure-far-field boundary conditions can only be used with ideal gases.
Divergence detected - temporarily reducing time step to 9.35566e-05
 and trying again...

Divergence detected - temporarily reducing time step to 9.35566e-06
 and trying again...

Divergence detected - temporarily reducing time step to 9.35566e-07
 and trying again...

 turbulent viscosity limited to viscosity ratio of 1.000000e+05 in 9 cells 
pressure-far-field boundary conditions can only be used with ideal gases.pressure-far-field boundary conditions can only be used with ideal gases.pressure-far-field boundary conditions can only be used with ideal gases.pressure-far-field boundary conditions can only be used with ideal gases.pressure-far-field boundary conditions can only be used with ideal gases.     1  1.0000e+00  1.0000e+00  1.0000e+00  1.0000e+00  1.1436e-03  6.5180e+02  0:00:00  999
pressure-far-field boundary conditions can only be used with ideal gases.
 time step reduced in 1511 cells due to excessive temperature change
pressure-far-field boundary conditions can only be used with ideal gases.pressure-far-field boundary conditions can only be used with ideal gases.pressure-far-field boundary conditions can only be used with ideal gases.pressure-far-field boundary conditions can only be used with ideal gases.pressure-far-field boundary conditions can only be used with ideal gases.     2  1.0000e+00  2.2095e-01  6.8517e-02  2.6021e-01  4.6069e-03  1.4465e-01  0:00:00  998
pressure-far-field boundary conditions can only be used with ideal gases.
 Reversed flow on 2 faces (11.7% area) of pressure-inlet 10.

 time step reduced in 2878 cells due to excessive temperature change
pressure-far-field boundary conditions can only be used with ideal gases.pressure-far-field boundary conditions can only be used with ideal gases.pressure-far-field boundary conditions can only be used with ideal gases.pressure-far-field boundary conditions can only be used with ideal gases.pressure-far-field boundary conditions can only be used with ideal gases.     3  1.0000e+00  1.7823e-02  2.8127e-02  1.0828e-01  6.5084e-02  1.3508e-01  0:00:00  997
pressure-far-field boundary conditions can only be used with ideal gases.
 Reversed flow on 3 faces (11.7% area) of pressure-inlet 10.

Divergence detected - temporarily reducing time step to 0.0001608
 and trying again...

Divergence detected - temporarily reducing time step to 1.608e-05
 and trying again...

 time step reduced in 715 cells due to excessive temperature change
pressure-far-field boundary conditions can only be used with ideal gases.pressure-far-field boundary conditions can only be used with ideal gases.pressure-far-field boundary conditions can only be used with ideal gases.pressure-far-field boundary conditions can only be used with ideal gases.pressure-far-field boundary conditions can only be used with ideal gases.     4  1.0000e+00  3.9713e-02  2.3344e-02  2.2577e-01  4.1260e-02  1.5780e-01  0:00:00  996
pressure-far-field boundary conditions can only be used with ideal gases.
 Reversed flow on 4 faces (17.0% area) of pressure-inlet 10.

Divergence detected - temporarily reducing time step to 0.000155463
 and trying again...

Divergence detected - temporarily reducing time step to 1.55463e-05
 and trying again...

 time step reduced in 569 cells due to excessive temperature change

 temperature limited to 5.000000e+03 in 1 cells on zone 3 
pressure-far-field boundary conditions can only be used with ideal gases.pressure-far-field boundary conditions can only be used with ideal gases.pressure-far-field boundary conditions can only be used with ideal gases.pressure-far-field boundary conditions can only be used with ideal gases.pressure-far-field boundary conditions can only be used with ideal gases.     5  8.8424e-01  1.5277e-01  9.2417e-02  1.0000e+00  9.3820e-02  2.1487e-01  0:16:35  995

 Reversed flow on 21 faces (35.8% area) of pressure-inlet 7.
pressure-far-field boundary conditions can only be used with ideal gases.
 Reversed flow on 3 faces (17.0% area) of pressure-inlet 10.

Divergence detected - temporarily reducing time step to 0.000150603
 and trying again...

Divergence detected - temporarily reducing time step to 1.50603e-05
 and trying again...

Divergence detected - temporarily reducing time step to 1.50603e-06
 and trying again...

 time step reduced in 93 cells due to excessive temperature change

 temperature limited to 5.000000e+03 in 5 cells on zone 3 
pressure-far-field boundary conditions can only be used with ideal gases.pressure-far-field boundary conditions can only be used with ideal gases.pressure-far-field boundary conditions can only be used with ideal gases.pressure-far-field boundary conditions can only be used with ideal gases.pressure-far-field boundary conditions can only be used with ideal gases.     6  1.0776e+00  4.7975e-01  9.3563e-02  5.1918e+00  5.7964e-02  1.1504e-01  0:13:15  994

 Reversed flow on 22 faces (37.9% area) of pressure-inlet 7.
pressure-far-field boundary conditions can only be used with ideal gases.
 Reversed flow on 3 faces (17.0% area) of pressure-inlet 10.

Divergence detected - temporarily reducing time step to 0.000150227
 and trying again...

Divergence detected - temporarily reducing time step to 1.50227e-05
 and trying again...

Divergence detected - temporarily reducing time step to 1.50227e-06
 and trying again...

 time step reduced in 96 cells due to excessive temperature change

 temperature limited to 5.000000e+03 in 5 cells on zone 3 
pressure-far-field boundary conditions can only be used with ideal gases.pressure-far-field boundary conditions can only be used with ideal gases.pressure-far-field boundary conditions can only be used with ideal gases.pressure-far-field boundary conditions can only be used with ideal gases.pressure-far-field boundary conditions can only be used with ideal gases.     7  7.4624e-01  4.5571e-01  8.1793e-02  4.9903e+00  9.2188e-02  1.0967e-01  0:10:36  993

 Reversed flow on 22 faces (37.9% area) of pressure-inlet 7.
pressure-far-field boundary conditions can only be used with ideal gases.
 Reversed flow on 3 faces (17.0% area) of pressure-inlet 10.

Divergence detected - temporarily reducing time step to 0.000149914
 and trying again...

Divergence detected - temporarily reducing time step to 1.49914e-05
 and trying again...

Divergence detected - temporarily reducing time step to 1.49914e-06
 and trying again...

 time step reduced in 95 cells due to excessive temperature change

 temperature limited to 5.000000e+03 in 11 cells on zone 3 
pressure-far-field boundary conditions can only be used with ideal gases.pressure-far-field boundary conditions can only be used with ideal gases.pressure-far-field boundary conditions can only be used with ideal gases.pressure-far-field boundary conditions can only be used with ideal gases.pressure-far-field boundary conditions can only be used with ideal gases.     8  6.3502e-01  5.2081e-01  5.2881e-02  4.8620e+00  1.2477e-01  1.1102e-01  0:08:28  992

 Reversed flow on 23 faces (40.0% area) of pressure-inlet 7.
pressure-far-field boundary conditions can only be used with ideal gases.
 Reversed flow on 3 faces (17.0% area) of pressure-inlet 10.

Divergence detected - temporarily reducing time step to 0.000149132
 and trying again...

Divergence detected - temporarily reducing time step to 1.49132e-05
 and trying again...

Divergence detected - temporarily reducing time step to 1.49132e-06
 and trying again...

 time step reduced in 91 cells due to excessive temperature change

 temperature limited to 5.000000e+03 in 11 cells on zone 3 
pressure-far-field boundary conditions can only be used with ideal gases.pressure-far-field boundary conditions can only be used with ideal gases.pressure-far-field boundary conditions can only be used with ideal gases.pressure-far-field boundary conditions can only be used with ideal gases.pressure-far-field boundary conditions can only be used with ideal gases.     9  9.4357e-01  6.1384e-01  7.0299e-02  5.7282e+00  1.5914e-01  1.0810e-01  0:06:46  991

 Reversed flow on 26 faces (46.1% area) of pressure-inlet 7.
pressure-far-field boundary conditions can only be used with ideal gases.
 Reversed flow on 3 faces (17.0% area) of pressure-inlet 10.

Divergence detected - temporarily reducing time step to 0.000148676
 and trying again...

Divergence detected - temporarily reducing time step to 1.48676e-05
 and trying again...

 time step reduced in 537 cells due to excessive temperature change

 temperature limited to 5.000000e+03 in 6 cells on zone 3 
pressure-far-field boundary conditions can only be used with ideal gases.pressure-far-field boundary conditions can only be used with ideal gases.pressure-far-field boundary conditions can only be used with ideal gases.pressure-far-field boundary conditions can only be used with ideal gases.pressure-far-field boundary conditions can only be used with ideal gases.    10  7.9342e-01  6.1415e-01  5.3507e-02  5.7121e+00  3.8989e-01  1.7767e-01  0:05:24  990

 Reversed flow on 29 faces (52.0% area) of pressure-inlet 7.
pressure-far-field boundary conditions can only be used with ideal gases.
 Reversed flow on 3 faces (17.0% area) of pressure-inlet 10.

Divergence detected - temporarily reducing time step to 0.000143204
 and trying again...

Divergence detected - temporarily reducing time step to 1.43204e-05
 and trying again...

Divergence detected - temporarily reducing time step to 1.43204e-06
 and trying again...

 time step reduced in 87 cells due to excessive temperature change

 temperature limited to 5.000000e+03 in 5 cells on zone 3 
pressure-far-field boundary conditions can only be used with ideal gases.pressure-far-field boundary conditions can only be used with ideal gases.pressure-far-field boundary conditions can only be used with ideal gases.pressure-far-field boundary conditions can only be used with ideal gases.pressure-far-field boundary conditions can only be used with ideal gases.    11  8.9413e-01  6.2982e-01  6.0744e-02  5.8426e+00  1.3436e-01  7.7120e-02  0:07:37  989

 Reversed flow on 29 faces (52.0% area) of pressure-inlet 7.
pressure-far-field boundary conditions can only be used with ideal gases.
 Reversed flow on 3 faces (17.0% area) of pressure-inlet 10.

Divergence detected - temporarily reducing time step to 0.000143465
 and trying again...

Divergence detected - temporarily reducing time step to 1.43465e-05
 and trying again...

Divergence detected - temporarily reducing time step to 1.43465e-06
 and trying again...

 time step reduced in 50 cells due to excessive temperature change

 temperature limited to 5.000000e+03 in 8 cells on zone 3 
pressure-far-field boundary conditions can only be used with ideal gases.pressure-far-field boundary conditions can only be used with ideal gases.pressure-far-field boundary conditions can only be used with ideal gases.pressure-far-field boundary conditions can only be used with ideal gases.pressure-far-field boundary conditions can only be used with ideal gases.
  iter  continuity  x-velocity  y-velocity      energy           k       omega     time/iter
    12  6.6449e-01  6.3739e-01  5.3682e-02  5.8236e+00  1.1898e-01  7.3711e-02  0:06:05  988

 Reversed flow on 29 faces (52.0% area) of pressure-inlet 7.
pressure-far-field boundary conditions can only be used with ideal gases.
 Reversed flow on 3 faces (17.0% area) of pressure-inlet 10.

Divergence detected - temporarily reducing time step to 0.000143622
 and trying again...

Divergence detected - temporarily reducing time step to 1.43622e-05
 and trying again...

 time step reduced in 516 cells due to excessive temperature change

 temperature limited to 5.000000e+03 in 4 cells on zone 3 
pressure-far-field boundary conditions can only be used with ideal gases.pressure-far-field boundary conditions can only be used with ideal gases.pressure-far-field boundary conditions can only be used with ideal gases.pressure-far-field boundary conditions can only be used with ideal gases.pressure-far-field boundary conditions can only be used with ideal gases.    13  5.7588e-01  6.4202e-01  4.4708e-02  5.7797e+00  1.9437e-01  1.2306e-01  0:04:52  987

 Reversed flow on 31 faces (55.6% area) of pressure-inlet 7.
pressure-far-field boundary conditions can only be used with ideal gases.
 Reversed flow on 3 faces (17.0% area) of pressure-inlet 10.

Divergence detected - temporarily reducing time step to 0.000139848
 and trying again...

Divergence detected - temporarily reducing time step to 1.39848e-05
 and trying again...

Divergence detected - temporarily reducing time step to 1.39848e-06
 and trying again...

 time step reduced in 56 cells due to excessive temperature change

 temperature limited to 5.000000e+03 in 6 cells on zone 3 
pressure-far-field boundary conditions can only be used with ideal gases.pressure-far-field boundary conditions can only be used with ideal gases.pressure-far-field boundary conditions can only be used with ideal gases.pressure-far-field boundary conditions can only be used with ideal gases.pressure-far-field boundary conditions can only be used with ideal gases.    14  7.9131e-01  6.5962e-01  6.9808e-02  5.7489e+00  1.4684e-01  7.5998e-02  0:03:53  986

 Reversed flow on 31 faces (55.6% area) of pressure-inlet 7.
pressure-far-field boundary conditions can only be used with ideal gases.
 Reversed flow on 3 faces (17.0% area) of pressure-inlet 10.

Divergence detected - temporarily reducing time step to 0.000140042
 and trying again...

Divergence detected - temporarily reducing time step to 1.40042e-05
 and trying again...

 time step reduced in 584 cells due to excessive temperature change

 temperature limited to 5.000000e+03 in 6 cells on zone 3 
pressure-far-field boundary conditions can only be used with ideal gases.pressure-far-field boundary conditions can only be used with ideal gases.pressure-far-field boundary conditions can only be used with ideal gases.pressure-far-field boundary conditions can only be used with ideal gases.pressure-far-field boundary conditions can only be used with ideal gases.    15  5.6742e-01  6.4072e-01  6.5105e-02  5.6101e+00  2.3690e-01  1.2271e-01  0:03:06  985

 Reversed flow on 31 faces (55.6% area) of pressure-inlet 7.
pressure-far-field boundary conditions can only be used with ideal gases.
 Reversed flow on 3 faces (17.0% area) of pressure-inlet 10.

Divergence detected - temporarily reducing time step to 0.000138412
 and trying again...

Divergence detected - temporarily reducing time step to 1.38412e-05
 and trying again...

Divergence detected - temporarily reducing time step to 1.38412e-06
 and trying again...

 time step reduced in 67 cells due to excessive temperature change

 temperature limited to 5.000000e+03 in 11 cells on zone 3 
pressure-far-field boundary conditions can only be used with ideal gases.pressure-far-field boundary conditions can only be used with ideal gases.pressure-far-field boundary conditions can only be used with ideal gases.pressure-far-field boundary conditions can only be used with ideal gases.pressure-far-field boundary conditions can only be used with ideal gases.    16  1.2954e+00  6.9715e-01  1.1461e-01  6.0751e+00  1.5878e-01  6.7129e-02  0:02:29  984

 Reversed flow on 31 faces (55.6% area) of pressure-inlet 7.
pressure-far-field boundary conditions can only be used with ideal gases.
 Reversed flow on 3 faces (17.0% area) of pressure-inlet 10.

Divergence detected - temporarily reducing time step to 0.000138627
 and trying again...

Divergence detected - temporarily reducing time step to 1.38627e-05
 and trying again...

Divergence detected - temporarily reducing time step to 1.38627e-06
 and trying again...

 time step reduced in 50 cells due to excessive temperature change

 temperature limited to 5.000000e+03 in 13 cells on zone 3 
pressure-far-field boundary conditions can only be used with ideal gases.pressure-far-field boundary conditions can only be used with ideal gases.pressure-far-field boundary conditions can only be used with ideal gases.pressure-far-field boundary conditions can only be used with ideal gases.pressure-far-field boundary conditions can only be used with ideal gases.    17  8.5688e-01  6.8180e-01  1.0963e-01  5.8935e+00  1.7485e-01  7.0517e-02  0:05:16  983

 Reversed flow on 31 faces (55.6% area) of pressure-inlet 7.
pressure-far-field boundary conditions can only be used with ideal gases.
 Reversed flow on 3 faces (17.0% area) of pressure-inlet 10.

Divergence detected - temporarily reducing time step to 0.000138854
 and trying again...

Divergence detected - temporarily reducing time step to 1.38854e-05
 and trying again...

Divergence detected - temporarily reducing time step to 1.38854e-06
 and trying again...

 time step reduced in 49 cells due to excessive temperature change

 temperature limited to 5.000000e+03 in 12 cells on zone 3 
pressure-far-field boundary conditions can only be used with ideal gases.pressure-far-field boundary conditions can only be used with ideal gases.pressure-far-field boundary conditions can only be used with ideal gases.pressure-far-field boundary conditions can only be used with ideal gases.pressure-far-field boundary conditions can only be used with ideal gases.    18  6.8510e-01  6.6703e-01  1.1942e-01  5.8340e+00  1.7905e-01  6.3048e-02  0:04:12  982

 Reversed flow on 32 faces (57.4% area) of pressure-inlet 7.
pressure-far-field boundary conditions can only be used with ideal gases.
 Reversed flow on 3 faces (17.0% area) of pressure-inlet 10.

Divergence detected - temporarily reducing time step to 0.000138977
 and trying again...

Divergence detected - temporarily reducing time step to 1.38977e-05
 and trying again...

Divergence detected - temporarily reducing time step to 1.38977e-06
 and trying again...

 time step reduced in 47 cells due to excessive temperature change

 temperature limited to 5.000000e+03 in 10 cells on zone 3 
pressure-far-field boundary conditions can only be used with ideal gases.pressure-far-field boundary conditions can only be used with ideal gases.pressure-far-field boundary conditions can only be used with ideal gases.pressure-far-field boundary conditions can only be used with ideal gases.pressure-far-field boundary conditions can only be used with ideal gases.    19  6.4025e-01  6.6994e-01  1.3024e-01  5.9138e+00  1.6913e-01  5.1731e-02  0:03:22  981

 Reversed flow on 32 faces (57.4% area) of pressure-inlet 7.
pressure-far-field boundary conditions can only be used with ideal gases.
 Reversed flow on 3 faces (17.0% area) of pressure-inlet 10.

Divergence detected - temporarily reducing time step to 0.000139017
 and trying again...

Divergence detected - temporarily reducing time step to 1.39017e-05
 and trying again...

Divergence detected - temporarily reducing time step to 1.39017e-06
 and trying again...

 time step reduced in 48 cells due to excessive temperature change

 temperature limited to 5.000000e+03 in 8 cells on zone 3 
pressure-far-field boundary conditions can only be used with ideal gases.pressure-far-field boundary conditions can only be used with ideal gases.pressure-far-field boundary conditions can only be used with ideal gases.pressure-far-field boundary conditions can only be used with ideal gases.pressure-far-field boundary conditions can only be used with ideal gases.    20  5.1119e-01  6.7901e-01  8.7509e-02  5.9797e+00  1.6565e-01  4.7897e-02  0:02:41  980

 Reversed flow on 32 faces (57.4% area) of pressure-inlet 7.
pressure-far-field boundary conditions can only be used with ideal gases.
 Reversed flow on 3 faces (17.0% area) of pressure-inlet 10.

Divergence detected - temporarily reducing time step to 0.000138994
 and trying again...

Divergence detected - temporarily reducing time step to 1.38994e-05
 and trying again...

Divergence detected - temporarily reducing time step to 1.38994e-06
 and trying again...

 time step reduced in 41 cells due to excessive temperature change

 temperature limited to 5.000000e+03 in 8 cells on zone 3 
pressure-far-field boundary conditions can only be used with ideal gases.pressure-far-field boundary conditions can only be used with ideal gases.pressure-far-field boundary conditions can only be used with ideal gases.pressure-far-field boundary conditions can only be used with ideal gases.pressure-far-field boundary conditions can only be used with ideal gases.    21  5.2742e-01  6.9375e-01  7.7503e-02  6.1508e+00  1.6109e-01  4.5780e-02  0:02:09  979

 Reversed flow on 32 faces (57.4% area) of pressure-inlet 7.
pressure-far-field boundary conditions can only be used with ideal gases.
 Reversed flow on 3 faces (17.0% area) of pressure-inlet 10.

Divergence detected - temporarily reducing time step to 0.000138961
 and trying again...

Divergence detected - temporarily reducing time step to 1.38961e-05
 and trying again...

Divergence detected - temporarily reducing time step to 1.38961e-06
 and trying again...

 time step reduced in 41 cells due to excessive temperature change

 temperature limited to 5.000000e+03 in 8 cells on zone 3 
pressure-far-field boundary conditions can only be used with ideal gases.pressure-far-field boundary conditions can only be used with ideal gases.pressure-far-field boundary conditions can only be used with ideal gases.pressure-far-field boundary conditions can only be used with ideal gases.pressure-far-field boundary conditions can only be used with ideal gases.    22  5.0655e-01  7.2108e-01  7.9791e-02  6.4478e+00  1.5845e-01  4.5963e-02  0:04:59  978

 Reversed flow on 32 faces (57.4% area) of pressure-inlet 7.
pressure-far-field boundary conditions can only be used with ideal gases.
 Reversed flow on 3 faces (17.0% area) of pressure-inlet 10.

Divergence detected - temporarily reducing time step to 0.000139042
 and trying again...

Divergence detected - temporarily reducing time step to 1.39042e-05
 and trying again...

Divergence detected - temporarily reducing time step to 1.39042e-06
 and trying again...

 time step reduced in 36 cells due to excessive temperature change

 temperature limited to 5.000000e+03 in 10 cells on zone 3 
pressure-far-field boundary conditions can only be used with ideal gases.pressure-far-field boundary conditions can only be used with ideal gases.pressure-far-field boundary conditions can only be used with ideal gases.pressure-far-field boundary conditions can only be used with ideal gases.pressure-far-field boundary conditions can only be used with ideal gases.
  iter  continuity  x-velocity  y-velocity      energy           k       omega     time/iter
    23  5.0940e-01  7.5950e-01  8.2801e-02  6.8654e+00  1.5202e-01  4.2170e-02  0:03:59  977

 Reversed flow on 32 faces (57.4% area) of pressure-inlet 7.
pressure-far-field boundary conditions can only be used with ideal gases.
 Reversed flow on 3 faces (17.0% area) of pressure-inlet 10.

Divergence detected - temporarily reducing time step to 0.000139102
 and trying again...

Divergence detected - temporarily reducing time step to 1.39102e-05
 and trying again...

Divergence detected - temporarily reducing time step to 1.39102e-06
 and trying again...

 time step reduced in 40 cells due to excessive temperature change

 temperature limited to 5.000000e+03 in 11 cells on zone 3 
pressure-far-field boundary conditions can only be used with ideal gases.pressure-far-field boundary conditions can only be used with ideal gases.pressure-far-field boundary conditions can only be used with ideal gases.pressure-far-field boundary conditions can only be used with ideal gases.pressure-far-field boundary conditions can only be used with ideal gases.    24  5.1106e-01  8.2539e-01  8.9658e-02  7.5407e+00  1.4055e-01  4.0064e-02  0:03:11  976

 Reversed flow on 32 faces (57.4% area) of pressure-inlet 7.
pressure-far-field boundary conditions can only be used with ideal gases.
 Reversed flow on 3 faces (17.0% area) of pressure-inlet 10.

Divergence detected - temporarily reducing time step to 0.000139158
 and trying again...

Divergence detected - temporarily reducing time step to 1.39158e-05
 and trying again...

Divergence detected - temporarily reducing time step to 1.39158e-06
 and trying again...

 time step reduced in 45 cells due to excessive temperature change

 temperature limited to 5.000000e+03 in 11 cells on zone 3 
pressure-far-field boundary conditions can only be used with ideal gases.pressure-far-field boundary conditions can only be used with ideal gases.pressure-far-field boundary conditions can only be used with ideal gases.pressure-far-field boundary conditions can only be used with ideal gases.pressure-far-field boundary conditions can only be used with ideal gases.    25  5.1016e-01  9.1376e-01  1.0111e-01  8.4483e+00  1.3117e-01  3.8684e-02  0:02:32  975

 Reversed flow on 33 faces (59.1% area) of pressure-inlet 7.
pressure-far-field boundary conditions can only be used with ideal gases.
 Reversed flow on 3 faces (17.0% area) of pressure-inlet 10.

Divergence detected - temporarily reducing time step to 0.000139229
 and trying again...

Divergence detected - temporarily reducing time step to 1.39229e-05
 and trying again...

Divergence detected - temporarily reducing time step to 1.39229e-06
 and trying again...

 time step reduced in 39 cells due to excessive temperature change

 temperature limited to 5.000000e+03 in 10 cells on zone 3 
pressure-far-field boundary conditions can only be used with ideal gases.pressure-far-field boundary conditions can only be used with ideal gases.pressure-far-field boundary conditions can only be used with ideal gases.pressure-far-field boundary conditions can only be used with ideal gases.pressure-far-field boundary conditions can only be used with ideal gases.    26  5.1205e-01  1.0317e+00  1.1557e-01  9.6579e+00  1.1788e-01  3.9665e-02  0:05:17  974

 Reversed flow on 33 faces (59.1% area) of pressure-inlet 7.
pressure-far-field boundary conditions can only be used with ideal gases.
 Reversed flow on 3 faces (17.0% area) of pressure-inlet 10.

Divergence detected - temporarily reducing time step to 0.000139248
 and trying again...

Divergence detected - temporarily reducing time step to 1.39248e-05
 and trying again...

 time step reduced in 439 cells due to excessive temperature change

 temperature limited to 5.000000e+03 in 8 cells on zone 3 
pressure-far-field boundary conditions can only be used with ideal gases.pressure-far-field boundary conditions can only be used with ideal gases.pressure-far-field boundary conditions can only be used with ideal gases.pressure-far-field boundary conditions can only be used with ideal gases.pressure-far-field boundary conditions can only be used with ideal gases.    27  5.1356e-01  1.1833e+00  1.3690e-01  1.1173e+01  1.1351e-01  6.5107e-02  0:04:13  973

 Reversed flow on 35 faces (62.4% area) of pressure-inlet 7.
pressure-far-field boundary conditions can only be used with ideal gases.
 Reversed flow on 3 faces (17.0% area) of pressure-inlet 10.

Divergence detected - temporarily reducing time step to 0.000136054
 and trying again...

Divergence detected - temporarily reducing time step to 1.36054e-05
 and trying again...

Divergence detected - temporarily reducing time step to 1.36054e-06
 and trying again...

 time step reduced in 59 cells due to excessive temperature change

 temperature limited to 5.000000e+03 in 20 cells on zone 3 
pressure-far-field boundary conditions can only be used with ideal gases.pressure-far-field boundary conditions can only be used with ideal gases.pressure-far-field boundary conditions can only be used with ideal gases.pressure-far-field boundary conditions can only be used with ideal gases.pressure-far-field boundary conditions can only be used with ideal gases.    28  1.8659e+00  1.4975e+00  3.5492e-01  1.4122e+01  6.5755e-02  4.2814e-02  0:03:22  972

 Reversed flow on 35 faces (62.4% area) of pressure-inlet 7.
pressure-far-field boundary conditions can only be used with ideal gases.
 Reversed flow on 3 faces (17.0% area) of pressure-inlet 10.

Divergence detected - temporarily reducing time step to 0.000135954
 and trying again...

Divergence detected - temporarily reducing time step to 1.35954e-05
 and trying again...

Divergence detected - temporarily reducing time step to 1.35954e-06
 and trying again...

 time step reduced in 33 cells due to excessive temperature change

 temperature limited to 5.000000e+03 in 13 cells on zone 3 
pressure-far-field boundary conditions can only be used with ideal gases.pressure-far-field boundary conditions can only be used with ideal gases.pressure-far-field boundary conditions can only be used with ideal gases.pressure-far-field boundary conditions can only be used with ideal gases.pressure-far-field boundary conditions can only be used with ideal gases.    29  1.4016e+00  1.7533e+00  3.3054e-01  1.5506e+01  6.2297e-02  3.8282e-02  0:02:42  971

 Reversed flow on 36 faces (64.0% area) of pressure-inlet 7.
pressure-far-field boundary conditions can only be used with ideal gases.
 Reversed flow on 3 faces (17.0% area) of pressure-inlet 10.

Divergence detected - temporarily reducing time step to 0.000136161
 and trying again...

Divergence detected - temporarily reducing time step to 1.36161e-05
 and trying again...

Divergence detected - temporarily reducing time step to 1.36161e-06
 and trying again...

 time step reduced in 27 cells due to excessive temperature change

 temperature limited to 5.000000e+03 in 14 cells on zone 3 
pressure-far-field boundary conditions can only be used with ideal gases.pressure-far-field boundary conditions can only be used with ideal gases.pressure-far-field boundary conditions can only be used with ideal gases.pressure-far-field boundary conditions can only be used with ideal gases.pressure-far-field boundary conditions can only be used with ideal gases.    30  9.3715e-01  2.0964e+00  2.9512e-01  1.7963e+01  5.1325e-02  3.5206e-02  0:02:09  970

 Reversed flow on 36 faces (64.0% area) of pressure-inlet 7.
pressure-far-field boundary conditions can only be used with ideal gases.
 Reversed flow on 3 faces (17.0% area) of pressure-inlet 10.

Divergence detected - temporarily reducing time step to 0.000136246
 and trying again...

Divergence detected - temporarily reducing time step to 1.36246e-05
 and trying again...

Divergence detected - temporarily reducing time step to 1.36246e-06
 and trying again...

 time step reduced in 20 cells due to excessive temperature change

 temperature limited to 5.000000e+03 in 11 cells on zone 3 
pressure-far-field boundary conditions can only be used with ideal gases.pressure-far-field boundary conditions can only be used with ideal gases.pressure-far-field boundary conditions can only be used with ideal gases.pressure-far-field boundary conditions can only be used with ideal gases.pressure-far-field boundary conditions can only be used with ideal gases.    31  8.4492e-01  2.5324e+00  3.4459e-01  2.1296e+01  4.2139e-02  3.2089e-02  0:01:43  969

 Reversed flow on 36 faces (64.0% area) of pressure-inlet 7.
pressure-far-field boundary conditions can only be used with ideal gases.
 Reversed flow on 3 faces (17.0% area) of pressure-inlet 10.

Divergence detected - temporarily reducing time step to 0.000136305
 and trying again...

Divergence detected - temporarily reducing time step to 1.36305e-05
 and trying again...

Divergence detected - temporarily reducing time step to 1.36305e-06
 and trying again...

 time step reduced in 17 cells due to excessive temperature change

 temperature limited to 5.000000e+03 in 11 cells on zone 3 
pressure-far-field boundary conditions can only be used with ideal gases.pressure-far-field boundary conditions can only be used with ideal gases.pressure-far-field boundary conditions can only be used with ideal gases.pressure-far-field boundary conditions can only be used with ideal gases.pressure-far-field boundary conditions can only be used with ideal gases.    32  8.1988e-01  3.0563e+00  4.1140e-01  2.5199e+01  3.9856e-02  2.7599e-02  0:04:36  968

 Reversed flow on 36 faces (64.0% area) of pressure-inlet 7.
pressure-far-field boundary conditions can only be used with ideal gases.
 Reversed flow on 3 faces (17.0% area) of pressure-inlet 10.

Divergence detected - temporarily reducing time step to 0.000136266
 and trying again...

Divergence detected - temporarily reducing time step to 1.36266e-05
 and trying again...

Divergence detected - temporarily reducing time step to 1.36266e-06
 and trying again...

 time step reduced in 15 cells due to excessive temperature change

 temperature limited to 1.000000e+00 in 1 cells on zone 3 

 temperature limited to 5.000000e+03 in 10 cells on zone 3 
pressure-far-field boundary conditions can only be used with ideal gases.pressure-far-field boundary conditions can only be used with ideal gases.pressure-far-field boundary conditions can only be used with ideal gases.pressure-far-field boundary conditions can only be used with ideal gases.pressure-far-field boundary conditions can only be used with ideal gases.    33  7.9225e-01  3.7223e+00  4.8516e-01  3.0045e+01  3.2664e-02  2.5358e-02  0:03:41  967

 Reversed flow on 36 faces (64.0% area) of pressure-inlet 7.
pressure-far-field boundary conditions can only be used with ideal gases.
 Reversed flow on 3 faces (17.0% area) of pressure-inlet 10.

Divergence detected - temporarily reducing time step to 0.000136216
 and trying again...

Divergence detected - temporarily reducing time step to 1.36216e-05
 and trying again...

Divergence detected - temporarily reducing time step to 1.36216e-06
 and trying again...

 time step reduced in 12 cells due to excessive temperature change

 temperature limited to 1.000000e+00 in 1 cells on zone 3 

 temperature limited to 5.000000e+03 in 9 cells on zone 3 
pressure-far-field boundary conditions can only be used with ideal gases.pressure-far-field boundary conditions can only be used with ideal gases.pressure-far-field boundary conditions can only be used with ideal gases.pressure-far-field boundary conditions can only be used with ideal gases.pressure-far-field boundary conditions can only be used with ideal gases.
  iter  continuity  x-velocity  y-velocity      energy           k       omega     time/iter
    34  7.6704e-01  4.3938e+00  6.0582e-01  3.4937e+01  2.4264e-02  2.1120e-02  0:02:56  966

 Reversed flow on 36 faces (64.0% area) of pressure-inlet 7.
pressure-far-field boundary conditions can only be used with ideal gases.
 Reversed flow on 3 faces (17.0% area) of pressure-inlet 10.

Divergence detected - temporarily reducing time step to 0.000136218
 and trying again...

Divergence detected - temporarily reducing time step to 1.36218e-05
 and trying again...

Divergence detected - temporarily reducing time step to 1.36218e-06
 and trying again...

 time step reduced in 11 cells due to excessive temperature change

 temperature limited to 1.000000e+00 in 1 cells on zone 3 

 temperature limited to 5.000000e+03 in 8 cells on zone 3 
pressure-far-field boundary conditions can only be used with ideal gases.pressure-far-field boundary conditions can only be used with ideal gases.pressure-far-field boundary conditions can only be used with ideal gases.pressure-far-field boundary conditions can only be used with ideal gases.pressure-far-field boundary conditions can only be used with ideal gases.    35  7.4360e-01  5.0412e+00  8.3826e-01  4.0896e+01  2.1844e-02  1.8205e-02  0:02:21  965

 Reversed flow on 36 faces (64.0% area) of pressure-inlet 7.
pressure-far-field boundary conditions can only be used with ideal gases.
 Reversed flow on 3 faces (17.0% area) of pressure-inlet 10.

Divergence detected - temporarily reducing time step to 0.000136052
 and trying again...

Divergence detected - temporarily reducing time step to 1.36052e-05
 and trying again...

Divergence detected - temporarily reducing time step to 1.36052e-06
 and trying again...

 time step reduced in 10 cells due to excessive temperature change

 temperature limited to 1.000000e+00 in 1 cells on zone 3 

 temperature limited to 5.000000e+03 in 8 cells on zone 3 

 turbulent viscosity limited to viscosity ratio of 1.000000e+05 in 3 cells 
pressure-far-field boundary conditions can only be used with ideal gases.pressure-far-field boundary conditions can only be used with ideal gases.pressure-far-field boundary conditions can only be used with ideal gases.pressure-far-field boundary conditions can only be used with ideal gases.pressure-far-field boundary conditions can only be used with ideal gases.    36  7.2122e-01  5.8066e+00  9.8195e-01  4.7864e+01  1.6231e-02  1.5070e-02  0:01:53  964

 Reversed flow on 36 faces (64.0% area) of pressure-inlet 7.
pressure-far-field boundary conditions can only be used with ideal gases.
 Reversed flow on 3 faces (17.0% area) of pressure-inlet 10.

Divergence detected - temporarily reducing time step to 0.000136058
 and trying again...

Divergence detected - temporarily reducing time step to 1.36058e-05
 and trying again...

Divergence detected - temporarily reducing time step to 1.36058e-06
 and trying again...

 time step reduced in 12 cells due to excessive temperature change

 temperature limited to 1.000000e+00 in 1 cells on zone 3 

 temperature limited to 5.000000e+03 in 8 cells on zone 3 

 turbulent viscosity limited to viscosity ratio of 1.000000e+05 in 4 cells 
pressure-far-field boundary conditions can only be used with ideal gases.pressure-far-field boundary conditions can only be used with ideal gases.pressure-far-field boundary conditions can only be used with ideal gases.pressure-far-field boundary conditions can only be used with ideal gases.pressure-far-field boundary conditions can only be used with ideal gases.    37  7.0845e-01  6.4840e+00  1.1937e+00  5.4160e+01  1.6823e-02  1.3468e-02  0:04:43  963

 Reversed flow on 36 faces (64.0% area) of pressure-inlet 7.
pressure-far-field boundary conditions can only be used with ideal gases.
 Reversed flow on 3 faces (17.0% area) of pressure-inlet 10.

Divergence detected - temporarily reducing time step to 0.000135346
 and trying again...

Divergence detected - temporarily reducing time step to 1.35346e-05
 and trying again...

Divergence detected - temporarily reducing time step to 1.35346e-06
 and trying again...

 time step reduced in 5 cells due to excessive temperature change

 temperature limited to 1.000000e+00 in 1 cells on zone 3 

 temperature limited to 5.000000e+03 in 8 cells on zone 3 

 turbulent viscosity limited to viscosity ratio of 1.000000e+05 in 6 cells 
pressure-far-field boundary conditions can only be used with ideal gases.pressure-far-field boundary conditions can only be used with ideal gases.pressure-far-field boundary conditions can only be used with ideal gases.pressure-far-field boundary conditions can only be used with ideal gases.pressure-far-field boundary conditions can only be used with ideal gases.    38  7.0840e-01  6.4372e+00  1.1850e+00  5.4217e+01  1.0304e-02  1.2217e-02  0:03:46  962

 Reversed flow on 37 faces (65.6% area) of pressure-inlet 7.
pressure-far-field boundary conditions can only be used with ideal gases.
 Reversed flow on 3 faces (17.0% area) of pressure-inlet 10.

Divergence detected - temporarily reducing time step to 0.000135495
 and trying again...

Divergence detected - temporarily reducing time step to 1.35495e-05
 and trying again...

Divergence detected - temporarily reducing time step to 1.35495e-06
 and trying again...

 time step reduced in 6 cells due to excessive temperature change

 temperature limited to 1.000000e+00 in 1 cells on zone 3 

 temperature limited to 5.000000e+03 in 8 cells on zone 3 

 turbulent viscosity limited to viscosity ratio of 1.000000e+05 in 6 cells 
pressure-far-field boundary conditions can only be used with ideal gases.pressure-far-field boundary conditions can only be used with ideal gases.pressure-far-field boundary conditions can only be used with ideal gases.pressure-far-field boundary conditions can only be used with ideal gases.pressure-far-field boundary conditions can only be used with ideal gases.    39  7.0582e-01  6.6216e+00  1.2400e+00  5.5408e+01  8.1060e-03  9.8148e-03  0:03:00  961

 Reversed flow on 37 faces (65.6% area) of pressure-inlet 7.
pressure-far-field boundary conditions can only be used with ideal gases.
 Reversed flow on 3 faces (17.0% area) of pressure-inlet 10.

Divergence detected - temporarily reducing time step to 0.000135045
 and trying again...

Divergence detected - temporarily reducing time step to 1.35045e-05
 and trying again...

Divergence detected - temporarily reducing time step to 1.35045e-06
 and trying again...

 time step reduced in 10 cells due to excessive temperature change

 temperature limited to 1.000000e+00 in 1 cells on zone 3 

 temperature limited to 5.000000e+03 in 8 cells on zone 3 

 turbulent viscosity limited to viscosity ratio of 1.000000e+05 in 6 cells 
pressure-far-field boundary conditions can only be used with ideal gases.pressure-far-field boundary conditions can only be used with ideal gases.pressure-far-field boundary conditions can only be used with ideal gases.pressure-far-field boundary conditions can only be used with ideal gases.pressure-far-field boundary conditions can only be used with ideal gases.    40  7.1367e-01  6.5441e+00  1.3288e+00  5.5674e+01  7.7040e-03  9.3751e-03  0:02:24  960

 Reversed flow on 37 faces (65.6% area) of pressure-inlet 7.
pressure-far-field boundary conditions can only be used with ideal gases.
 Reversed flow on 3 faces (17.0% area) of pressure-inlet 10.

Divergence detected - temporarily reducing time step to 0.000135602
 and trying again...

Divergence detected - temporarily reducing time step to 1.35602e-05
 and trying again...

 time step reduced in 502 cells due to excessive temperature change

 temperature limited to 1.000000e+00 in 1 cells on zone 3 

 temperature limited to 5.000000e+03 in 8 cells on zone 3 

 turbulent viscosity limited to viscosity ratio of 1.000000e+05 in 6 cells 
pressure-far-field boundary conditions can only be used with ideal gases.pressure-far-field boundary conditions can only be used with ideal gases.pressure-far-field boundary conditions can only be used with ideal gases.pressure-far-field boundary conditions can only be used with ideal gases.pressure-far-field boundary conditions can only be used with ideal gases.    41  7.1653e-01  6.7880e+00  1.3329e+00  5.6404e+01  5.9217e-03  9.6061e-03  0:01:55  959

 Reversed flow on 38 faces (67.1% area) of pressure-inlet 7.
pressure-far-field boundary conditions can only be used with ideal gases.
 Reversed flow on 3 faces (17.0% area) of pressure-inlet 10.

Divergence detected - temporarily reducing time step to 0.000133723
 and trying again...

Divergence detected - temporarily reducing time step to 1.33723e-05
 and trying again...

Divergence detected - temporarily reducing time step to 1.33723e-06
 and trying again...

 time step reduced in 50 cells due to excessive temperature change

 temperature limited to 1.000000e+00 in 1 cells on zone 3 

 temperature limited to 5.000000e+03 in 8 cells on zone 3 

 turbulent viscosity limited to viscosity ratio of 1.000000e+05 in 6 cells 
pressure-far-field boundary conditions can only be used with ideal gases.pressure-far-field boundary conditions can only be used with ideal gases.pressure-far-field boundary conditions can only be used with ideal gases.pressure-far-field boundary conditions can only be used with ideal gases.pressure-far-field boundary conditions can only be used with ideal gases.    42  1.7750e+00  6.8455e+00  1.3753e+00  5.8229e+01  4.2332e-03  6.1283e-03  0:01:32  958

 Reversed flow on 40 faces (69.8% area) of pressure-inlet 7.
pressure-far-field boundary conditions can only be used with ideal gases.
 Reversed flow on 3 faces (17.0% area) of pressure-inlet 10.

Divergence detected - temporarily reducing time step to 0.000132944
 and trying again...

Divergence detected - temporarily reducing time step to 1.32944e-05
 and trying again...

Divergence detected - temporarily reducing time step to 1.32944e-06
 and trying again...

 time step reduced in 49 cells due to excessive temperature change

 temperature limited to 1.000000e+00 in 1 cells on zone 3 

 temperature limited to 5.000000e+03 in 18 cells on zone 3 

 turbulent viscosity limited to viscosity ratio of 1.000000e+05 in 6 cells 
pressure-far-field boundary conditions can only be used with ideal gases.pressure-far-field boundary conditions can only be used with ideal gases.pressure-far-field boundary conditions can only be used with ideal gases.pressure-far-field boundary conditions can only be used with ideal gases.pressure-far-field boundary conditions can only be used with ideal gases.    43  1.3379e+00  6.7636e+00  1.3272e+00  5.7324e+01  4.9339e-03  6.4150e-03  0:04:25  957

 Reversed flow on 38 faces (66.9% area) of pressure-inlet 7.
pressure-far-field boundary conditions can only be used with ideal gases.
 Reversed flow on 3 faces (17.0% area) of pressure-inlet 10.

Divergence detected - temporarily reducing time step to 0.000131994
 and trying again...

Divergence detected - temporarily reducing time step to 1.31994e-05
 and trying again...

Divergence detected - temporarily reducing time step to 1.31994e-06
 and trying again...

 time step reduced in 41 cells due to excessive temperature change

 temperature limited to 1.000000e+00 in 1 cells on zone 3 

 temperature limited to 5.000000e+03 in 15 cells on zone 3 

 turbulent viscosity limited to viscosity ratio of 1.000000e+05 in 6 cells 
pressure-far-field boundary conditions can only be used with ideal gases.pressure-far-field boundary conditions can only be used with ideal gases.pressure-far-field boundary conditions can only be used with ideal gases.pressure-far-field boundary conditions can only be used with ideal gases.pressure-far-field boundary conditions can only be used with ideal gases.    44  1.1094e+00  6.4974e+00  1.2971e+00  5.5693e+01  6.3280e-03  7.3469e-03  0:03:32  956

 Reversed flow on 39 faces (68.5% area) of pressure-inlet 7.
pressure-far-field boundary conditions can only be used with ideal gases.
 Reversed flow on 3 faces (17.0% area) of pressure-inlet 10.

Divergence detected - temporarily reducing time step to 0.000131046
 and trying again...

Divergence detected - temporarily reducing time step to 1.31046e-05
 and trying again...

Divergence detected - temporarily reducing time step to 1.31046e-06
 and trying again...

 time step reduced in 22 cells due to excessive temperature change

 temperature limited to 1.000000e+00 in 1 cells on zone 3 

 temperature limited to 5.000000e+03 in 16 cells on zone 3 

 turbulent viscosity limited to viscosity ratio of 1.000000e+05 in 6 cells 
pressure-far-field boundary conditions can only be used with ideal gases.pressure-far-field boundary conditions can only be used with ideal gases.pressure-far-field boundary conditions can only be used with ideal gases.pressure-far-field boundary conditions can only be used with ideal gases.pressure-far-field boundary conditions can only be used with ideal gases.
  iter  continuity  x-velocity  y-velocity      energy           k       omega     time/iter
    45  9.7538e-01  6.1989e+00  1.2507e+00  5.4375e+01  5.4825e-03  7.1542e-03  0:02:49  955

 Reversed flow on 38 faces (67.1% area) of pressure-inlet 7.
pressure-far-field boundary conditions can only be used with ideal gases.
 Reversed flow on 3 faces (17.0% area) of pressure-inlet 10.

Divergence detected - temporarily reducing time step to 0.000131229
 and trying again...

Divergence detected - temporarily reducing time step to 1.31229e-05
 and trying again...

Divergence detected - temporarily reducing time step to 1.31229e-06
 and trying again...

 time step reduced in 24 cells due to excessive temperature change

 temperature limited to 1.000000e+00 in 1 cells on zone 3 

 temperature limited to 5.000000e+03 in 16 cells on zone 3 

 turbulent viscosity limited to viscosity ratio of 1.000000e+05 in 6 cells 
pressure-far-field boundary conditions can only be used with ideal gases.pressure-far-field boundary conditions can only be used with ideal gases.pressure-far-field boundary conditions can only be used with ideal gases.pressure-far-field boundary conditions can only be used with ideal gases.pressure-far-field boundary conditions can only be used with ideal gases.    46  9.5735e-01  6.1793e+00  1.3228e+00  5.4750e+01  4.3895e-03  6.1363e-03  0:02:15  954

 Reversed flow on 38 faces (67.1% area) of pressure-inlet 7.
pressure-far-field boundary conditions can only be used with ideal gases.
 Reversed flow on 3 faces (17.0% area) of pressure-inlet 10.

Divergence detected - temporarily reducing time step to 0.000131094
 and trying again...

Divergence detected - temporarily reducing time step to 1.31094e-05
 and trying again...

Divergence detected - temporarily reducing time step to 1.31094e-06
 and trying again...

 time step reduced in 31 cells due to excessive temperature change

 temperature limited to 1.000000e+00 in 1 cells on zone 3 

 temperature limited to 5.000000e+03 in 16 cells on zone 3 

 turbulent viscosity limited to viscosity ratio of 1.000000e+05 in 6 cells 
pressure-far-field boundary conditions can only be used with ideal gases.pressure-far-field boundary conditions can only be used with ideal gases.pressure-far-field boundary conditions can only be used with ideal gases.pressure-far-field boundary conditions can only be used with ideal gases.pressure-far-field boundary conditions can only be used with ideal gases.    47  9.5041e-01  6.1295e+00  1.2385e+00  5.4196e+01  5.4700e-03  6.8226e-03  0:01:48  953

 Reversed flow on 38 faces (67.1% area) of pressure-inlet 7.
pressure-far-field boundary conditions can only be used with ideal gases.
 Reversed flow on 3 faces (17.0% area) of pressure-inlet 10.

Divergence detected - temporarily reducing time step to 0.000130511
 and trying again...

Divergence detected - temporarily reducing time step to 1.30511e-05
 and trying again...

Divergence detected - temporarily reducing time step to 1.30511e-06
 and trying again...

 time step reduced in 26 cells due to excessive temperature change

 temperature limited to 1.000000e+00 in 1 cells on zone 3 

 temperature limited to 5.000000e+03 in 16 cells on zone 3 

 turbulent viscosity limited to viscosity ratio of 1.000000e+05 in 6 cells 
pressure-far-field boundary conditions can only be used with ideal gases.pressure-far-field boundary conditions can only be used with ideal gases.pressure-far-field boundary conditions can only be used with ideal gases.pressure-far-field boundary conditions can only be used with ideal gases.pressure-far-field boundary conditions can only be used with ideal gases.    48  9.3776e-01  5.9713e+00  1.1840e+00  5.3171e+01  6.1759e-03  7.0047e-03  0:04:37  952

 Reversed flow on 37 faces (65.6% area) of pressure-inlet 7.
pressure-far-field boundary conditions can only be used with ideal gases.
 Reversed flow on 3 faces (17.0% area) of pressure-inlet 10.

Divergence detected - temporarily reducing time step to 0.00013003
 and trying again...

Divergence detected - temporarily reducing time step to 1.3003e-05
 and trying again...

Divergence detected - temporarily reducing time step to 1.3003e-06
 and trying again...

 time step reduced in 38 cells due to excessive temperature change

 temperature limited to 1.000000e+00 in 1 cells on zone 3 

 temperature limited to 5.000000e+03 in 17 cells on zone 3 

 turbulent viscosity limited to viscosity ratio of 1.000000e+05 in 6 cells 
pressure-far-field boundary conditions can only be used with ideal gases.pressure-far-field boundary conditions can only be used with ideal gases.pressure-far-field boundary conditions can only be used with ideal gases.pressure-far-field boundary conditions can only be used with ideal gases.pressure-far-field boundary conditions can only be used with ideal gases.    49  9.2992e-01  5.8272e+00  1.1906e+00  5.2589e+01  6.5654e-03  7.0476e-03  0:03:41  951

 Reversed flow on 37 faces (65.6% area) of pressure-inlet 7.
pressure-far-field boundary conditions can only be used with ideal gases.
 Reversed flow on 3 faces (17.0% area) of pressure-inlet 10.

Divergence detected - temporarily reducing time step to 0.00012949
 and trying again...

Divergence detected - temporarily reducing time step to 1.2949e-05
 and trying again...

Divergence detected - temporarily reducing time step to 1.2949e-06
 and trying again...

 time step reduced in 20 cells due to excessive temperature change

 temperature limited to 1.000000e+00 in 1 cells on zone 3 

 temperature limited to 5.000000e+03 in 17 cells on zone 3 

 turbulent viscosity limited to viscosity ratio of 1.000000e+05 in 6 cells 
pressure-far-field boundary conditions can only be used with ideal gases.pressure-far-field boundary conditions can only be used with ideal gases.pressure-far-field boundary conditions can only be used with ideal gases.pressure-far-field boundary conditions can only be used with ideal gases.pressure-far-field boundary conditions can only be used with ideal gases.    50  9.1690e-01  5.7052e+00  1.2115e+00  5.2345e+01  7.5314e-03  7.2089e-03  0:02:57  950

 Reversed flow on 37 faces (65.6% area) of pressure-inlet 7.
pressure-far-field boundary conditions can only be used with ideal gases.
 Reversed flow on 3 faces (17.0% area) of pressure-inlet 10.

Divergence detected - temporarily reducing time step to 0.00013
 and trying again...

Divergence detected - temporarily reducing time step to 1.3e-05
 and trying again...

Divergence detected - temporarily reducing time step to 1.3e-06
 and trying again...

 time step reduced in 24 cells due to excessive temperature change

 temperature limited to 1.000000e+00 in 1 cells on zone 3 

 temperature limited to 5.000000e+03 in 17 cells on zone 3 

 turbulent viscosity limited to viscosity ratio of 1.000000e+05 in 6 cells 
pressure-far-field boundary conditions can only be used with ideal gases.pressure-far-field boundary conditions can only be used with ideal gases.pressure-far-field boundary conditions can only be used with ideal gases.pressure-far-field boundary conditions can only be used with ideal gases.pressure-far-field boundary conditions can only be used with ideal gases.    51  9.0458e-01  5.8283e+00  1.3264e+00  5.3114e+01  9.3443e-03  7.4762e-03  0:02:21  949

 Reversed flow on 37 faces (65.6% area) of pressure-inlet 7.
pressure-far-field boundary conditions can only be used with ideal gases.
 Reversed flow on 3 faces (17.0% area) of pressure-inlet 10.

Divergence detected - temporarily reducing time step to 0.000129946
 and trying again...

Divergence detected - temporarily reducing time step to 1.29946e-05
 and trying again...

Divergence detected - temporarily reducing time step to 1.29946e-06
 and trying again...

 time step reduced in 15 cells due to excessive temperature change

 temperature limited to 1.000000e+00 in 1 cells on zone 3 

 temperature limited to 5.000000e+03 in 16 cells on zone 3 

 turbulent viscosity limited to viscosity ratio of 1.000000e+05 in 10 cells 
pressure-far-field boundary conditions can only be used with ideal gases.pressure-far-field boundary conditions can only be used with ideal gases.pressure-far-field boundary conditions can only be used with ideal gases.pressure-far-field boundary conditions can only be used with ideal gases.pressure-far-field boundary conditions can only be used with ideal gases.    52  9.0398e-01  5.9714e+00  1.3495e+00  5.2901e+01  1.0189e-02  7.2372e-03  0:01:53  948

 Reversed flow on 37 faces (65.6% area) of pressure-inlet 7.
pressure-far-field boundary conditions can only be used with ideal gases.
 Reversed flow on 3 faces (17.0% area) of pressure-inlet 10.

Divergence detected - temporarily reducing time step to 0.00012999
 and trying again...

Divergence detected - temporarily reducing time step to 1.2999e-05
 and trying again...

Divergence detected - temporarily reducing time step to 1.2999e-06
 and trying again...

 time step reduced in 4 cells due to excessive temperature change

 temperature limited to 1.000000e+00 in 1 cells on zone 3 

 temperature limited to 5.000000e+03 in 15 cells on zone 3 

 turbulent viscosity limited to viscosity ratio of 1.000000e+05 in 14 cells 
pressure-far-field boundary conditions can only be used with ideal gases.pressure-far-field boundary conditions can only be used with ideal gases.pressure-far-field boundary conditions can only be used with ideal gases.pressure-far-field boundary conditions can only be used with ideal gases.pressure-far-field boundary conditions can only be used with ideal gases.    53  8.9609e-01  5.9652e+00  1.3713e+00  5.1850e+01  9.4525e-03  6.4767e-03  0:04:40  947

 Reversed flow on 37 faces (65.6% area) of pressure-inlet 7.
pressure-far-field boundary conditions can only be used with ideal gases.
 Reversed flow on 3 faces (17.0% area) of pressure-inlet 10.

Divergence detected - temporarily reducing time step to 0.000129985
 and trying again...

Divergence detected - temporarily reducing time step to 1.29985e-05
 and trying again...

Divergence detected - temporarily reducing time step to 1.29985e-06
 and trying again...

 time step reduced in 5 cells due to excessive temperature change

 temperature limited to 1.000000e+00 in 1 cells on zone 3 

 temperature limited to 5.000000e+03 in 15 cells on zone 3 

 turbulent viscosity limited to viscosity ratio of 1.000000e+05 in 19 cells 
pressure-far-field boundary conditions can only be used with ideal gases.pressure-far-field boundary conditions can only be used with ideal gases.pressure-far-field boundary conditions can only be used with ideal gases.pressure-far-field boundary conditions can only be used with ideal gases.pressure-far-field boundary conditions can only be used with ideal gases.    54  8.9724e-01  5.9740e+00  1.4248e+00  5.1429e+01  9.2662e-03  6.2188e-03  0:03:43  946

 Reversed flow on 38 faces (65.9% area) of pressure-inlet 7.
pressure-far-field boundary conditions can only be used with ideal gases.
 Reversed flow on 3 faces (17.0% area) of pressure-inlet 10.

Divergence detected - temporarily reducing time step to 0.000129774
 and trying again...

Divergence detected - temporarily reducing time step to 1.29774e-05
 and trying again...

Divergence detected - temporarily reducing time step to 1.29774e-06
 and trying again...

 time step reduced in 4 cells due to excessive temperature change

 temperature limited to 1.000000e+00 in 1 cells on zone 3 

 temperature limited to 5.000000e+03 in 14 cells on zone 3 

 turbulent viscosity limited to viscosity ratio of 1.000000e+05 in 28 cells 
pressure-far-field boundary conditions can only be used with ideal gases.pressure-far-field boundary conditions can only be used with ideal gases.pressure-far-field boundary conditions can only be used with ideal gases.pressure-far-field boundary conditions can only be used with ideal gases.pressure-far-field boundary conditions can only be used with ideal gases.    55  9.0568e-01  5.9596e+00  1.4463e+00  5.1281e+01  8.5064e-03  5.9400e-03  0:02:59  945

 Reversed flow on 58 faces (76.1% area) of pressure-inlet 7.
pressure-far-field boundary conditions can only be used with ideal gases.
 Reversed flow on 3 faces (17.0% area) of pressure-inlet 10.

Divergence detected - temporarily reducing time step to 0.000129503
 and trying again...

Divergence detected - temporarily reducing time step to 1.29503e-05
 and trying again...

Divergence detected - temporarily reducing time step to 1.29503e-06
 and trying again...

 time step reduced in 1 cells due to excessive temperature change

 temperature limited to 1.000000e+00 in 1 cells on zone 3 

 temperature limited to 5.000000e+03 in 14 cells on zone 3 

 turbulent viscosity limited to viscosity ratio of 1.000000e+05 in 38 cells 
pressure-far-field boundary conditions can only be used with ideal gases.pressure-far-field boundary conditions can only be used with ideal gases.pressure-far-field boundary conditions can only be used with ideal gases.pressure-far-field boundary conditions can only be used with ideal gases.pressure-far-field boundary conditions can only be used with ideal gases.
  iter  continuity  x-velocity  y-velocity      energy           k       omega     time/iter
    56  9.3015e-01  5.9219e+00  1.4596e+00  5.0748e+01  1.0233e-02  6.2977e-03  0:02:23  944

 Reversed flow on 59 faces (76.8% area) of pressure-inlet 7.
pressure-far-field boundary conditions can only be used with ideal gases.
 Reversed flow on 3 faces (17.0% area) of pressure-inlet 10.

Divergence detected - temporarily reducing time step to 0.000129352
 and trying again...

Divergence detected - temporarily reducing time step to 1.29352e-05
 and trying again...

 time step reduced in 660 cells due to excessive temperature change

 temperature limited to 1.000000e+00 in 1 cells on zone 3 

 temperature limited to 5.000000e+03 in 11 cells on zone 3 

 turbulent viscosity limited to viscosity ratio of 1.000000e+05 in 40 cells 
pressure-far-field boundary conditions can only be used with ideal gases.pressure-far-field boundary conditions can only be used with ideal gases.pressure-far-field boundary conditions can only be used with ideal gases.pressure-far-field boundary conditions can only be used with ideal gases.pressure-far-field boundary conditions can only be used with ideal gases.    57  9.2508e-01  5.5776e+00  1.4568e+00  4.7366e+01  1.1736e-02  8.7286e-03  0:01:54  943

 Reversed flow on 76 faces (98.6% area) of pressure-inlet 7.
pressure-far-field boundary conditions can only be used with ideal gases.
 Reversed flow on 3 faces (17.0% area) of pressure-inlet 10.

Divergence detected - temporarily reducing time step to 0.000126649
 and trying again...

Divergence detected - temporarily reducing time step to 1.26649e-05
 and trying again...

Divergence detected - temporarily reducing time step to 1.26649e-06
 and trying again...

Divergence detected - temporarily reducing time step to 1.26649e-07
 and trying again...

 time step reduced in 10 cells due to excessive temperature change

 temperature limited to 1.000000e+00 in 1 cells on zone 3 

 temperature limited to 5.000000e+03 in 11 cells on zone 3 

 turbulent viscosity limited to viscosity ratio of 1.000000e+05 in 40 cells 
pressure-far-field boundary conditions can only be used with ideal gases.pressure-far-field boundary conditions can only be used with ideal gases.pressure-far-field boundary conditions can only be used with ideal gases.pressure-far-field boundary conditions can only be used with ideal gases.pressure-far-field boundary conditions can only be used with ideal gases.    58  2.0325e+00  6.0795e+00  2.1870e+00  8.1248e+01  7.3842e-03  3.1117e-03  0:04:40  942

 Reversed flow on 76 faces (98.6% area) of pressure-inlet 7.
pressure-far-field boundary conditions can only be used with ideal gases.
 Reversed flow on 3 faces (17.0% area) of pressure-inlet 10.

Divergence detected - temporarily reducing time step to 0.000126456
 and trying again...

Divergence detected - temporarily reducing time step to 1.26456e-05
 and trying again...

Divergence detected - temporarily reducing time step to 1.26456e-06
 and trying again...

Divergence detected - temporarily reducing time step to 1.26456e-07
 and trying again...

 time step reduced in 7 cells due to excessive temperature change

 temperature limited to 1.000000e+00 in 1 cells on zone 3 

 temperature limited to 5.000000e+03 in 25 cells on zone 3 

 turbulent viscosity limited to viscosity ratio of 1.000000e+05 in 40 cells 
pressure-far-field boundary conditions can only be used with ideal gases.pressure-far-field boundary conditions can only be used with ideal gases.pressure-far-field boundary conditions can only be used with ideal gases.pressure-far-field boundary conditions can only be used with ideal gases.pressure-far-field boundary conditions can only be used with ideal gases.    59  1.8773e+00  5.8569e+00  2.1096e+00  7.7427e+01  6.8101e-03  3.0357e-03  0:03:43  941

 Reversed flow on 75 faces (98.2% area) of pressure-inlet 7.
pressure-far-field boundary conditions can only be used with ideal gases.
 Reversed flow on 3 faces (17.0% area) of pressure-inlet 10.

Divergence detected - temporarily reducing time step to 0.000126217
 and trying again...

Divergence detected - temporarily reducing time step to 1.26217e-05
 and trying again...

Divergence detected - temporarily reducing time step to 1.26217e-06
 and trying again...

Divergence detected - temporarily reducing time step to 1.26217e-07
 and trying again...

 time step reduced in 5 cells due to excessive temperature change

 temperature limited to 1.000000e+00 in 1 cells on zone 3 

 temperature limited to 5.000000e+03 in 26 cells on zone 3 

 turbulent viscosity limited to viscosity ratio of 1.000000e+05 in 40 cells 
pressure-far-field boundary conditions can only be used with ideal gases.pressure-far-field boundary conditions can only be used with ideal gases.pressure-far-field boundary conditions can only be used with ideal gases.pressure-far-field boundary conditions can only be used with ideal gases.pressure-far-field boundary conditions can only be used with ideal gases.    60  1.8118e+00  5.7271e+00  2.0882e+00  7.6142e+01  6.8553e-03  3.0938e-03  0:02:59  940

 Reversed flow on 75 faces (98.2% area) of pressure-inlet 7.
pressure-far-field boundary conditions can only be used with ideal gases.
 Reversed flow on 3 faces (17.0% area) of pressure-inlet 10.

Divergence detected - temporarily reducing time step to 0.000126008
 and trying again...

Divergence detected - temporarily reducing time step to 1.26008e-05
 and trying again...

Divergence detected - temporarily reducing time step to 1.26008e-06
 and trying again...

 time step reduced in 16 cells due to excessive temperature change

 temperature limited to 1.000000e+00 in 1 cells on zone 3 

 temperature limited to 5.000000e+03 in 22 cells on zone 3 

 turbulent viscosity limited to viscosity ratio of 1.000000e+05 in 40 cells 
pressure-far-field boundary conditions can only be used with ideal gases.pressure-far-field boundary conditions can only be used with ideal gases.pressure-far-field boundary conditions can only be used with ideal gases.pressure-far-field boundary conditions can only be used with ideal gases.pressure-far-field boundary conditions can only be used with ideal gases.    61  1.7603e+00  5.6128e+00  2.0642e+00  7.5153e+01  9.5890e-03  7.2488e-03  0:02:23  939

 Reversed flow on 75 faces (98.2% area) of pressure-inlet 7.
pressure-far-field boundary conditions can only be used with ideal gases.
 Reversed flow on 3 faces (17.0% area) of pressure-inlet 10.

Divergence detected - temporarily reducing time step to 0.000125473
 and trying again...

Divergence detected - temporarily reducing time step to 1.25473e-05
 and trying again...

Divergence detected - temporarily reducing time step to 1.25473e-06
 and trying again...

 time step reduced in 17 cells due to excessive temperature change

 temperature limited to 1.000000e+00 in 1 cells on zone 3 

 temperature limited to 5.000000e+03 in 44 cells on zone 3 

 turbulent viscosity limited to viscosity ratio of 1.000000e+05 in 42 cells 
pressure-far-field boundary conditions can only be used with ideal gases.pressure-far-field boundary conditions can only be used with ideal gases.pressure-far-field boundary conditions can only be used with ideal gases.pressure-far-field boundary conditions can only be used with ideal gases.pressure-far-field boundary conditions can only be used with ideal gases.    62  1.7612e+00  5.6444e+00  2.1485e+00  7.6463e+01  8.8641e-03  6.8738e-03  0:01:54  938

 Reversed flow on 74 faces (97.8% area) of pressure-inlet 7.
pressure-far-field boundary conditions can only be used with ideal gases.
 Reversed flow on 3 faces (17.0% area) of pressure-inlet 10.

Divergence detected - temporarily reducing time step to 0.000125036
 and trying again...

Divergence detected - temporarily reducing time step to 1.25036e-05
 and trying again...

Divergence detected - temporarily reducing time step to 1.25036e-06
 and trying again...

 time step reduced in 23 cells due to excessive temperature change

 temperature limited to 1.000000e+00 in 1 cells on zone 3 

 temperature limited to 5.000000e+03 in 62 cells on zone 3 

 turbulent viscosity limited to viscosity ratio of 1.000000e+05 in 47 cells 
pressure-far-field boundary conditions can only be used with ideal gases.pressure-far-field boundary conditions can only be used with ideal gases.pressure-far-field boundary conditions can only be used with ideal gases.pressure-far-field boundary conditions can only be used with ideal gases.pressure-far-field boundary conditions can only be used with ideal gases.    63  1.6703e+00  5.5185e+00  2.1855e+00  7.4645e+01  8.9571e-03  6.6037e-03  0:04:39  937

 Reversed flow on 74 faces (97.8% area) of pressure-inlet 7.
pressure-far-field boundary conditions can only be used with ideal gases.
 Reversed flow on 3 faces (17.0% area) of pressure-inlet 10.

Divergence detected - temporarily reducing time step to 0.000124639
 and trying again...

Divergence detected - temporarily reducing time step to 1.24639e-05
 and trying again...

Divergence detected - temporarily reducing time step to 1.24639e-06
 and trying again...

 time step reduced in 20 cells due to excessive temperature change

 temperature limited to 1.000000e+00 in 1 cells on zone 3 

 temperature limited to 5.000000e+03 in 78 cells on zone 3 

 turbulent viscosity limited to viscosity ratio of 1.000000e+05 in 55 cells 
pressure-far-field boundary conditions can only be used with ideal gases.pressure-far-field boundary conditions can only be used with ideal gases.pressure-far-field boundary conditions can only be used with ideal gases.pressure-far-field boundary conditions can only be used with ideal gases.pressure-far-field boundary conditions can only be used with ideal gases.    64  1.6806e+00  5.4285e+00  2.1766e+00  7.3749e+01  8.5839e-03  6.6094e-03  0:03:43  936

 Reversed flow on 73 faces (97.4% area) of pressure-inlet 7.
pressure-far-field boundary conditions can only be used with ideal gases.
 Reversed flow on 3 faces (17.0% area) of pressure-inlet 10.

Divergence detected - temporarily reducing time step to 0.000124709
 and trying again...

Divergence detected - temporarily reducing time step to 1.24709e-05
 and trying again...

Divergence detected - temporarily reducing time step to 1.24709e-06
 and trying again...

 time step reduced in 20 cells due to excessive temperature change

 temperature limited to 1.000000e+00 in 1 cells on zone 3 

 temperature limited to 5.000000e+03 in 97 cells on zone 3 

 turbulent viscosity limited to viscosity ratio of 1.000000e+05 in 58 cells 
pressure-far-field boundary conditions can only be used with ideal gases.pressure-far-field boundary conditions can only be used with ideal gases.pressure-far-field boundary conditions can only be used with ideal gases.pressure-far-field boundary conditions can only be used with ideal gases.pressure-far-field boundary conditions can only be used with ideal gases.    65  1.6755e+00  5.2981e+00  2.1402e+00  7.2630e+01  8.2872e-03  6.5258e-03  0:02:58  935

 Reversed flow on 73 faces (97.4% area) of pressure-inlet 7.
pressure-far-field boundary conditions can only be used with ideal gases.
 Reversed flow on 3 faces (17.0% area) of pressure-inlet 10.

Divergence detected - temporarily reducing time step to 0.000124263
 and trying again...

Divergence detected - temporarily reducing time step to 1.24263e-05
 and trying again...

 time step reduced in 193 cells due to excessive temperature change

 temperature limited to 1.000000e+00 in 1 cells on zone 3 

 temperature limited to 5.000000e+03 in 116 cells on zone 3 

 turbulent viscosity limited to viscosity ratio of 1.000000e+05 in 66 cells 
[...]
 Reversed flow on 86 faces (42.2% area) of pressure-inlet 10.

Divergence detected - temporarily reducing time step to 1.35149e-05
 and trying again...

Divergence detected - temporarily reducing time step to 1.35149e-06
 and trying again...

 time step reduced in 316 cells due to excessive temperature change

 temperature limited to 1.000000e+00 in 300 cells on zone 3 

 temperature limited to 5.000000e+03 in 32 cells on zone 3 

 turbulent viscosity limited to viscosity ratio of 1.000000e+05 in 19732 cells 
pressure-far-field boundary conditions can only be used with ideal gases.pressure-far-field boundary conditions can only be used with ideal gases.pressure-far-field boundary conditions can only be used with ideal gases.pressure-far-field boundary conditions can only be used with ideal gases.pressure-far-field boundary conditions can only be used with ideal gases.   985  1.2294e-01  8.7277e-02  5.2667e-02  9.0337e+00  2.7413e-03  2.0049e-03  0:00:03   15

 Reversed flow on 80 faces (100.0% area) of pressure-inlet 7.
pressure-far-field boundary conditions can only be used with ideal gases.
 Reversed flow on 86 faces (42.2% area) of pressure-inlet 10.

Divergence detected - temporarily reducing time step to 1.35148e-05
 and trying again...

Divergence detected - temporarily reducing time step to 1.35148e-06
 and trying again...

 time step reduced in 316 cells due to excessive temperature change

 temperature limited to 1.000000e+00 in 301 cells on zone 3 

 temperature limited to 5.000000e+03 in 33 cells on zone 3 

 turbulent viscosity limited to viscosity ratio of 1.000000e+05 in 19695 cells 
pressure-far-field boundary conditions can only be used with ideal gases.pressure-far-field boundary conditions can only be used with ideal gases.pressure-far-field boundary conditions can only be used with ideal gases.pressure-far-field boundary conditions can only be used with ideal gases.pressure-far-field boundary conditions can only be used with ideal gases.   986  1.2404e-01  8.6871e-02  5.2983e-02  9.0598e+00  2.7563e-03  2.0237e-03  0:00:02   14

 Reversed flow on 80 faces (100.0% area) of pressure-inlet 7.
pressure-far-field boundary conditions can only be used with ideal gases.
 Reversed flow on 86 faces (42.3% area) of pressure-inlet 10.

Divergence detected - temporarily reducing time step to 1.35145e-05
 and trying again...

Divergence detected - temporarily reducing time step to 1.35145e-06
 and trying again...

 time step reduced in 316 cells due to excessive temperature change

 temperature limited to 1.000000e+00 in 303 cells on zone 3 

 temperature limited to 5.000000e+03 in 33 cells on zone 3 

 turbulent viscosity limited to viscosity ratio of 1.000000e+05 in 19664 cells 
pressure-far-field boundary conditions can only be used with ideal gases.pressure-far-field boundary conditions can only be used with ideal gases.pressure-far-field boundary conditions can only be used with ideal gases.pressure-far-field boundary conditions can only be used with ideal gases.pressure-far-field boundary conditions can only be used with ideal gases.   987  1.2530e-01  8.6450e-02  5.3250e-02  9.0860e+00  2.7734e-03  2.0439e-03  0:00:02   13

 Reversed flow on 80 faces (100.0% area) of pressure-inlet 7.
pressure-far-field boundary conditions can only be used with ideal gases.
 Reversed flow on 86 faces (42.2% area) of pressure-inlet 10.

Divergence detected - temporarily reducing time step to 1.35142e-05
 and trying again...

Divergence detected - temporarily reducing time step to 1.35142e-06
 and trying again...

 time step reduced in 316 cells due to excessive temperature change

 temperature limited to 1.000000e+00 in 305 cells on zone 3 

 temperature limited to 5.000000e+03 in 33 cells on zone 3 

 turbulent viscosity limited to viscosity ratio of 1.000000e+05 in 19633 cells 
pressure-far-field boundary conditions can only be used with ideal gases.pressure-far-field boundary conditions can only be used with ideal gases.pressure-far-field boundary conditions can only be used with ideal gases.pressure-far-field boundary conditions can only be used with ideal gases.pressure-far-field boundary conditions can only be used with ideal gases.   988  1.2580e-01  8.6012e-02  5.3475e-02  9.1123e+00  2.7899e-03  2.0664e-03  0:00:01   12

 Reversed flow on 80 faces (100.0% area) of pressure-inlet 7.
pressure-far-field boundary conditions can only be used with ideal gases.
 Reversed flow on 85 faces (39.7% area) of pressure-inlet 10.

Divergence detected - temporarily reducing time step to 1.35138e-05
 and trying again...

Divergence detected - temporarily reducing time step to 1.35138e-06
 and trying again...

 time step reduced in 317 cells due to excessive temperature change

 temperature limited to 1.000000e+00 in 306 cells on zone 3 

 temperature limited to 5.000000e+03 in 34 cells on zone 3 

 turbulent viscosity limited to viscosity ratio of 1.000000e+05 in 19606 cells 
pressure-far-field boundary conditions can only be used with ideal gases.pressure-far-field boundary conditions can only be used with ideal gases.pressure-far-field boundary conditions can only be used with ideal gases.pressure-far-field boundary conditions can only be used with ideal gases.pressure-far-field boundary conditions can only be used with ideal gases.   989  1.2650e-01  8.5564e-02  5.3666e-02  9.1386e+00  2.8089e-03  2.0896e-03  0:00:01   11

 Reversed flow on 80 faces (100.0% area) of pressure-inlet 7.
pressure-far-field boundary conditions can only be used with ideal gases.
 Reversed flow on 86 faces (42.2% area) of pressure-inlet 10.

Divergence detected - temporarily reducing time step to 1.35134e-05
 and trying again...

Divergence detected - temporarily reducing time step to 1.35134e-06
 and trying again...

 time step reduced in 317 cells due to excessive temperature change

 temperature limited to 1.000000e+00 in 308 cells on zone 3 

 temperature limited to 5.000000e+03 in 34 cells on zone 3 

 turbulent viscosity limited to viscosity ratio of 1.000000e+05 in 19573 cells 
pressure-far-field boundary conditions can only be used with ideal gases.pressure-far-field boundary conditions can only be used with ideal gases.pressure-far-field boundary conditions can only be used with ideal gases.pressure-far-field boundary conditions can only be used with ideal gases.pressure-far-field boundary conditions can only be used with ideal gases.   990  1.2707e-01  8.5101e-02  5.3832e-02  9.1650e+00  2.8280e-03  2.1096e-03  0:00:03   10

 Reversed flow on 80 faces (100.0% area) of pressure-inlet 7.
pressure-far-field boundary conditions can only be used with ideal gases.
 Reversed flow on 85 faces (39.7% area) of pressure-inlet 10.

Divergence detected - temporarily reducing time step to 1.35128e-05
 and trying again...

Divergence detected - temporarily reducing time step to 1.35128e-06
 and trying again...

 time step reduced in 316 cells due to excessive temperature change

 temperature limited to 1.000000e+00 in 310 cells on zone 3 

 temperature limited to 5.000000e+03 in 34 cells on zone 3 

 turbulent viscosity limited to viscosity ratio of 1.000000e+05 in 19539 cells 
pressure-far-field boundary conditions can only be used with ideal gases.pressure-far-field boundary conditions can only be used with ideal gases.pressure-far-field boundary conditions can only be used with ideal gases.pressure-far-field boundary conditions can only be used with ideal gases.pressure-far-field boundary conditions can only be used with ideal gases.
  iter  continuity  x-velocity  y-velocity      energy           k       omega     time/iter
   991  1.2757e-01  8.4631e-02  5.3976e-02  9.1915e+00  2.8509e-03  2.1346e-03  0:00:02    9

 Reversed flow on 80 faces (100.0% area) of pressure-inlet 7.
pressure-far-field boundary conditions can only be used with ideal gases.
 Reversed flow on 86 faces (42.2% area) of pressure-inlet 10.

Divergence detected - temporarily reducing time step to 1.35123e-05
 and trying again...

Divergence detected - temporarily reducing time step to 1.35123e-06
 and trying again...

 time step reduced in 316 cells due to excessive temperature change

 temperature limited to 1.000000e+00 in 312 cells on zone 3 

 temperature limited to 5.000000e+03 in 35 cells on zone 3 

 turbulent viscosity limited to viscosity ratio of 1.000000e+05 in 19506 cells 
pressure-far-field boundary conditions can only be used with ideal gases.pressure-far-field boundary conditions can only be used with ideal gases.pressure-far-field boundary conditions can only be used with ideal gases.pressure-far-field boundary conditions can only be used with ideal gases.pressure-far-field boundary conditions can only be used with ideal gases.   992  1.2802e-01  8.4150e-02  5.4102e-02  9.2181e+00  2.8745e-03  2.1625e-03  0:00:01    8

 Reversed flow on 80 faces (100.0% area) of pressure-inlet 7.
pressure-far-field boundary conditions can only be used with ideal gases.
 Reversed flow on 85 faces (39.7% area) of pressure-inlet 10.

Divergence detected - temporarily reducing time step to 1.35116e-05
 and trying again...

Divergence detected - temporarily reducing time step to 1.35116e-06
 and trying again...

 time step reduced in 316 cells due to excessive temperature change

 temperature limited to 1.000000e+00 in 314 cells on zone 3 

 temperature limited to 5.000000e+03 in 35 cells on zone 3 

 turbulent viscosity limited to viscosity ratio of 1.000000e+05 in 19474 cells 
pressure-far-field boundary conditions can only be used with ideal gases.pressure-far-field boundary conditions can only be used with ideal gases.pressure-far-field boundary conditions can only be used with ideal gases.pressure-far-field boundary conditions can only be used with ideal gases.pressure-far-field boundary conditions can only be used with ideal gases.   993  1.2835e-01  8.3660e-02  5.4212e-02  9.2448e+00  2.8999e-03  2.1939e-03  0:00:01    7

 Reversed flow on 80 faces (100.0% area) of pressure-inlet 7.
pressure-far-field boundary conditions can only be used with ideal gases.
 Reversed flow on 85 faces (39.7% area) of pressure-inlet 10.

Divergence detected - temporarily reducing time step to 1.35109e-05
 and trying again...

Divergence detected - temporarily reducing time step to 1.35109e-06
 and trying again...

 time step reduced in 315 cells due to excessive temperature change

 temperature limited to 1.000000e+00 in 315 cells on zone 3 

 temperature limited to 5.000000e+03 in 35 cells on zone 3 

 turbulent viscosity limited to viscosity ratio of 1.000000e+05 in 19437 cells 
pressure-far-field boundary conditions can only be used with ideal gases.pressure-far-field boundary conditions can only be used with ideal gases.pressure-far-field boundary conditions can only be used with ideal gases.pressure-far-field boundary conditions can only be used with ideal gases.pressure-far-field boundary conditions can only be used with ideal gases.   994  1.2861e-01  8.3163e-02  5.4310e-02  9.2715e+00  2.9259e-03  2.2296e-03  0:00:01    6

 Reversed flow on 80 faces (100.0% area) of pressure-inlet 7.
pressure-far-field boundary conditions can only be used with ideal gases.
 Reversed flow on 85 faces (39.8% area) of pressure-inlet 10.

Divergence detected - temporarily reducing time step to 1.35102e-05
 and trying again...

Divergence detected - temporarily reducing time step to 1.35102e-06
 and trying again...

 time step reduced in 313 cells due to excessive temperature change

 temperature limited to 1.000000e+00 in 317 cells on zone 3 

 temperature limited to 5.000000e+03 in 35 cells on zone 3 

 turbulent viscosity limited to viscosity ratio of 1.000000e+05 in 19408 cells 
pressure-far-field boundary conditions can only be used with ideal gases.pressure-far-field boundary conditions can only be used with ideal gases.pressure-far-field boundary conditions can only be used with ideal gases.pressure-far-field boundary conditions can only be used with ideal gases.pressure-far-field boundary conditions can only be used with ideal gases.   995  1.2957e-01  8.2656e-02  5.4396e-02  9.2983e+00  2.9565e-03  2.3858e-03  0:00:00    5

 Reversed flow on 80 faces (100.0% area) of pressure-inlet 7.
pressure-far-field boundary conditions can only be used with ideal gases.
 Reversed flow on 86 faces (42.2% area) of pressure-inlet 10.

Divergence detected - temporarily reducing time step to 1.35094e-05
 and trying again...

Divergence detected - temporarily reducing time step to 1.35094e-06
 and trying again...

 time step reduced in 310 cells due to excessive temperature change

 temperature limited to 1.000000e+00 in 318 cells on zone 3 

 temperature limited to 5.000000e+03 in 35 cells on zone 3 

 turbulent viscosity limited to viscosity ratio of 1.000000e+05 in 19374 cells 
pressure-far-field boundary conditions can only be used with ideal gases.pressure-far-field boundary conditions can only be used with ideal gases.pressure-far-field boundary conditions can only be used with ideal gases.pressure-far-field boundary conditions can only be used with ideal gases.pressure-far-field boundary conditions can only be used with ideal gases.   996  7.3315e-02  6.5639e-02  6.3842e-02  9.3250e+00  2.9859e-03  2.4667e-03  0:00:01    4

 Reversed flow on 80 faces (100.0% area) of pressure-inlet 7.
pressure-far-field boundary conditions can only be used with ideal gases.
 Reversed flow on 85 faces (39.7% area) of pressure-inlet 10.

Divergence detected - temporarily reducing time step to 1.35084e-05
 and trying again...

Divergence detected - temporarily reducing time step to 1.35084e-06
 and trying again...

 time step reduced in 307 cells due to excessive temperature change

 temperature limited to 1.000000e+00 in 320 cells on zone 3 

 temperature limited to 5.000000e+03 in 36 cells on zone 3 

 turbulent viscosity limited to viscosity ratio of 1.000000e+05 in 19335 cells 
pressure-far-field boundary conditions can only be used with ideal gases.pressure-far-field boundary conditions can only be used with ideal gases.pressure-far-field boundary conditions can only be used with ideal gases.pressure-far-field boundary conditions can only be used with ideal gases.pressure-far-field boundary conditions can only be used with ideal gases.   997  7.7267e-02  6.6632e-02  5.5827e-02  9.3519e+00  3.0090e-03  3.4860e-03  0:00:01    3

 Reversed flow on 80 faces (100.0% area) of pressure-inlet 7.
pressure-far-field boundary conditions can only be used with ideal gases.
 Reversed flow on 86 faces (42.2% area) of pressure-inlet 10.

Divergence detected - temporarily reducing time step to 1.35075e-05
 and trying again...

Divergence detected - temporarily reducing time step to 1.35075e-06
 and trying again...

 time step reduced in 304 cells due to excessive temperature change

 temperature limited to 1.000000e+00 in 321 cells on zone 3 

 temperature limited to 5.000000e+03 in 37 cells on zone 3 

 turbulent viscosity limited to viscosity ratio of 1.000000e+05 in 19300 cells 
pressure-far-field boundary conditions can only be used with ideal gases.pressure-far-field boundary conditions can only be used with ideal gases.pressure-far-field boundary conditions can only be used with ideal gases.pressure-far-field boundary conditions can only be used with ideal gases.pressure-far-field boundary conditions can only be used with ideal gases.   998  7.7865e-02  6.7150e-02  5.1675e-02  9.3790e+00  3.0333e-03  6.7458e-03  0:00:00    2

 Reversed flow on 80 faces (100.0% area) of pressure-inlet 7.
pressure-far-field boundary conditions can only be used with ideal gases.
 Reversed flow on 86 faces (42.2% area) of pressure-inlet 10.

Divergence detected - temporarily reducing time step to 1.35064e-05
 and trying again...

Divergence detected - temporarily reducing time step to 1.35064e-06
 and trying again...

 time step reduced in 303 cells due to excessive temperature change

 temperature limited to 1.000000e+00 in 322 cells on zone 3 

 temperature limited to 5.000000e+03 in 37 cells on zone 3 

 turbulent viscosity limited to viscosity ratio of 1.000000e+05 in 19256 cells 
pressure-far-field boundary conditions can only be used with ideal gases.pressure-far-field boundary conditions can only be used with ideal gases.pressure-far-field boundary conditions can only be used with ideal gases.pressure-far-field boundary conditions can only be used with ideal gases.pressure-far-field boundary conditions can only be used with ideal gases.   999  7.8417e-02  6.7227e-02  4.9764e-02  9.4061e+00  3.0635e-03  1.4616e-02  0:00:00    1

 Reversed flow on 80 faces (100.0% area) of pressure-inlet 7.
pressure-far-field boundary conditions can only be used with ideal gases.
 Reversed flow on 85 faces (39.8% area) of pressure-inlet 10.

Divergence detected - temporarily reducing time step to 1.35053e-05
 and trying again...

Divergence detected - temporarily reducing time step to 1.35053e-06
 and trying again...

 time step reduced in 301 cells due to excessive temperature change

 temperature limited to 1.000000e+00 in 322 cells on zone 3 

 temperature limited to 5.000000e+03 in 37 cells on zone 3 

 turbulent viscosity limited to viscosity ratio of 1.000000e+05 in 19211 cells 
pressure-far-field boundary conditions can only be used with ideal gases.pressure-far-field boundary conditions can only be used with ideal gases.pressure-far-field boundary conditions can only be used with ideal gases.pressure-far-field boundary conditions can only be used with ideal gases.pressure-far-field boundary conditions can only be used with ideal gases.  1000  7.8618e-02  6.7037e-02  4.8891e-02  9.4333e+00  3.0991e-03  2.5286e-02  0:00:00    0
Writing "| gzip -2cf > SolutionMonitor.gz"...
Writing temporary file C:\\Users\\lockb\\AppData\\Local\\Temp\\flntgz-146443 ...
Done.

Field function saved in this object doesn't exist anymore.
Writing data to W:\\AAE412\\Project\\Git\\ANSYS_Files\\NozzleC\\NozzleC_files\\dp0\\FFF-6\\Fluent\\FFF-6.1.ip ...
	x-coord
	y-coord
	pressure
	x-velocity
	y-velocity
	temperature
	k
	omega
Done.
Writing "| gzip -2cf > FFF-6.1-2.cas.gz"...
Writing temporary file C:\\Users\\lockb\\AppData\\Local\\Temp\\flntgz-146444 ...
   50400 quadrilateral cells, zone  3, binary.
   50400 cell partition ids, zone  3, 6 partitions, binary.
   99780 2D interior faces, zone  1, binary.
     360 2D interior faces, zone  2, binary.
     380 2D wall faces, zone  6, binary.
      80 2D pressure-inlet faces, zone  7, binary.
     380 2D axis faces, zone  8, binary.
     380 2D pressure-far-field faces, zone  9, binary.
     100 2D pressure-inlet faces, zone 10, binary.
   51061 nodes, binary.
   51061 node flags, binary.
Done.

Writing "| gzip -2cf > FFF-6.1-2-01000.dat.gz"...
Writing temporary file C:\\Users\\lockb\\AppData\\Local\\Temp\\flntgz-146445 ...
Done.


Performance Timer for 1000 iterations on 6 compute nodes
  Average wall-clock time per iteration:              0.149 sec
  Global reductions per iteration:                      199 ops
  Global reductions time per iteration:               0.000 sec (0.0%)
  Message count per iteration:                         9701 messages
  Data transfer per iteration:                        3.415 MB
  LE solves per iteration:                                3 solves
  LE wall-clock time per iteration:                   0.030 sec (20.2%)
  LE global solves per iteration:                        10 solves
  LE global wall-clock time per iteration:            0.000 sec (0.3%)
  LE global matrix maximum size:                        69
  AMG cycles per iteration:                          10.158 cycles
  Relaxation sweeps per iteration:                      739 sweeps
  Relaxation exchanges per iteration:                     0 exchanges
  LE early protections (stall) per iteration:           0.885 times
  LE early protections (divergence) per iteration:      0.346 times

  Total wall-clock time:                            148.684 sec

