
Build Time: Apr 16 2019 10:49:06 
Executable Path: C:/PROGRA~1/ANSYSI~1/v194/fluent/ntbin/win64/fluent.exe

-------------------------------------------------------------------------------
ID    Hostname        Core  O.S.         PID    Vendor                    
-------------------------------------------------------------------------------
n3    X-ARMS2106PC64  4/12  Windows-x64  7812   Intel(R) Core(TM) i7-8700 
n2    X-ARMS2106PC64  3/12  Windows-x64  8756   Intel(R) Core(TM) i7-8700 
n1    X-ARMS2106PC64  2/12  Windows-x64  11792  Intel(R) Core(TM) i7-8700 
n0*   X-ARMS2106PC64  1/12  Windows-x64  9256   Intel(R) Core(TM) i7-8700 
host  X-ARMS2106PC64        Windows-x64  9348   Intel(R) Core(TM) i7-8700 

MPI Option Selected: ibmmpi
Selected system interconnect: default
-------------------------------------------------------------------------------
Warning: Ignoring WB preference save-post-processing-images
Multicore SMT processors detected. Processor affinity set!
Reading "\\nas01.itap.purdue.edu\puhome\desktop\412GIT\AAE412_Project\ANSYS_Files\NozzleB\NozzleB_files\dp0\FFF-5\MECH\FFF-5.msh"...
Buffering for file scan...

  160941 nodes, binary.
    2120 nodes, binary.
  321960 2D interior faces, zone  1, binary.
     980 2D interior faces, zone  2, binary.
      80 2D velocity-inlet faces, zone  6, binary.
     300 2D velocity-inlet faces, zone  7, binary.
     380 2D wall faces, zone  8, binary.
     760 2D wall faces, zone  9, binary.
     600 2D axis faces, zone 10, binary.
  162000 quadrilateral cells, zone  3, binary.


Following contexts active in the case file have been de-activated because of their current context control conditions:
"coupled-pseudo-transient"

Building...
     mesh
	auto partitioning mesh by Metis (fast),
	distributing mesh
		parts....,
		faces....,
		nodes....,
		cells....,
        bandwidth reduction using Reverse Cuthill-McKee: 40363/208 = 194.053
     materials,
     interface,
     domains,
	mixture
     zones,
	axis
	farfield
	nozzlewall
	ambientinlet
	flowinlet
	solid-surface_body
	surface_body
	interior-surface_bodySetting solid-surface_body (mixture) ... Done.

Applying mesh operation "Change Zone Type"

Applying mesh operation "Change Zone Type [ 2 ]"

Applying mesh operation "Change Zone Type [ 3 ]"
 Setting zone id of solid-surface_body to 3.
 Setting zone id of flowinlet to 6.
 Setting zone id of farfield to 9.
 Setting zone id of ambientinlet to 7.
 Setting zone id of interior-surface_body to 1.
 Setting zone id of surface_body to 2.
 Setting zone id of nozzlewall to 8.
 Setting zone id of axis to 10.
Done.
Setting solid-surface_body (mixture) ... Done.
Setting flowinlet (mixture) ... Done.
Setting farfield (mixture) ... Done.
Setting ambientinlet (mixture) ... Done.
Setting interior-surface_body (mixture) ... Done.
Setting surface_body (mixture) ... Done.
Setting nozzlewall (mixture) ... Done.
Setting axis (mixture) ... Done.

     parallel,
Done.

Preparing mesh for display...
Warning: The use of axis boundary conditions is not appropriate for
         a 2D/3D flow problem. Please consider changing the zone
         type to symmetry or wall, or the problem to axisymmetric.

Warning: The use of axis boundary conditions is not appropriate for
         a 2D/3D flow problem. Please consider changing the zone
         type to symmetry or wall, or the problem to axisymmetric.

Done.
Warning: The use of axis boundary conditions is not appropriate for
         a 2D/3D flow problem. Please consider changing the zone
         type to symmetry or wall, or the problem to axisymmetric.

"Updating Setup cell..."
"Updating Solution cell..."
Reading \\\\nas01.itap.purdue.edu\\puhome\\desktop\\412GIT\\AAE412_Project\\ANSYS_Files\\NozzleB\\NozzleB_files\\dp0\\FFF-5\\Fluent\\FFF-5.1.ip...
Reading IP data ...
	x-coord
	y-coord
	pressure
	x-velocity
	y-velocity
	temperature
  Done.
  Initializing values...
  Done.
Writing "| gzip -2cf > FFF-5-Setup-Output.cas.gz"...
Writing temporary file C:\\Users\\deubanks\\AppData\\Local\\Temp\\flntgz-93482 ...
  162000 quadrilateral cells, zone  3, binary.
  162000 cell partition ids, zone  3, 4 partitions, binary.
  321960 2D interior faces, zone  1, binary.
     980 2D interior faces, zone  2, binary.
      80 2D pressure-inlet faces, zone  6, binary.
     300 2D pressure-inlet faces, zone  7, binary.
     380 2D wall faces, zone  8, binary.
     760 2D pressure-outlet faces, zone  9, binary.
     600 2D axis faces, zone 10, binary.
  163061 nodes, binary.
  163061 node flags, binary.
Done.


  iter  continuity  x-velocity  y-velocity      energy     time/iter

 Reversed flow on 43 faces (18.3% area) of pressure-inlet 7.

 Reversed flow on 178 faces (21.9% area) of pressure-outlet 9.
     1  1.0000e+00  5.6661e-03  2.7321e-03  1.3435e-16  0:00:00  999

 Reversed flow on 43 faces (18.8% area) of pressure-inlet 7.

 Reversed flow on 227 faces (20.0% area) of pressure-outlet 9.
     2  5.8803e-01  4.2592e-03  2.1550e-03  1.4277e-16  0:16:38  998

 Reversed flow on 45 faces (19.7% area) of pressure-inlet 7.

 Reversed flow on 230 faces (21.1% area) of pressure-outlet 9.
     3  4.3043e-01  3.8119e-03  1.7849e-03  1.4502e-16  0:13:18  997

 Reversed flow on 45 faces (20.4% area) of pressure-inlet 7.

 Reversed flow on 154 faces (18.3% area) of pressure-outlet 9.
     4  3.2171e-01  3.7153e-03  1.7259e-03  1.4624e-16  0:10:37  996

 Reversed flow on 46 faces (21.3% area) of pressure-inlet 7.

 Reversed flow on 163 faces (16.2% area) of pressure-outlet 9.
     5  2.3617e-01  3.6127e-03  1.6684e-03  1.4757e-16  0:08:29  995

 Reversed flow on 45 faces (21.0% area) of pressure-inlet 7.

 Reversed flow on 169 faces (14.9% area) of pressure-outlet 9.
     6  1.7473e-01  3.5371e-03  1.6232e-03  1.4697e-16  0:06:47  994

 Reversed flow on 48 faces (23.0% area) of pressure-inlet 7.

 Reversed flow on 154 faces (14.0% area) of pressure-outlet 9.
     7  1.2833e-01  3.4568e-03  1.5848e-03  1.4679e-16  0:05:25  993

 Reversed flow on 48 faces (23.3% area) of pressure-inlet 7.

 Reversed flow on 182 faces (14.3% area) of pressure-outlet 9.
     8  9.7349e-02  3.3881e-03  1.5632e-03  1.4723e-16  0:04:20  992

 Reversed flow on 49 faces (24.0% area) of pressure-inlet 7.

 Reversed flow on 207 faces (14.5% area) of pressure-outlet 9.
     9  7.4114e-02  3.3354e-03  1.5492e-03  1.4777e-16  0:03:28  991

 Reversed flow on 49 faces (24.4% area) of pressure-inlet 7.

 Reversed flow on 168 faces (13.8% area) of pressure-outlet 9.
    10  6.0839e-02  3.2872e-03  1.5304e-03  1.4818e-16  0:02:46  990

 Reversed flow on 50 faces (25.5% area) of pressure-inlet 7.

 Reversed flow on 178 faces (12.2% area) of pressure-outlet 9.
    11  4.7953e-02  3.2492e-03  1.5171e-03  1.4704e-16  0:05:31  989

 Reversed flow on 50 faces (25.9% area) of pressure-inlet 7.

 Reversed flow on 183 faces (12.4% area) of pressure-outlet 9.

  iter  continuity  x-velocity  y-velocity      energy     time/iter
    12  4.0038e-02  3.2101e-03  1.5079e-03  1.4658e-16  0:04:24  988

 Reversed flow on 51 faces (26.6% area) of pressure-inlet 7.

 Reversed flow on 221 faces (13.9% area) of pressure-outlet 9.
    13  3.3404e-02  3.1691e-03  1.5046e-03  1.4576e-16  0:03:31  987

 Reversed flow on 52 faces (27.4% area) of pressure-inlet 7.

 Reversed flow on 163 faces (11.7% area) of pressure-outlet 9.
    14  2.8764e-02  3.1284e-03  1.5041e-03  1.4694e-16  0:02:49  986

 Reversed flow on 52 faces (27.8% area) of pressure-inlet 7.

 Reversed flow on 195 faces (12.1% area) of pressure-outlet 9.
    15  2.6430e-02  3.0872e-03  1.5094e-03  1.4669e-16  0:02:15  985

 Reversed flow on 53 faces (28.6% area) of pressure-inlet 7.

 Reversed flow on 170 faces (10.5% area) of pressure-outlet 9.
    16  2.2463e-02  3.0470e-03  1.5137e-03  1.4408e-16  0:01:48  984

 Reversed flow on 53 faces (29.1% area) of pressure-inlet 7.

 Reversed flow on 213 faces (12.6% area) of pressure-outlet 9.
    17  2.2863e-02  3.0096e-03  1.5158e-03  1.4424e-16  0:01:26  983

 Reversed flow on 53 faces (29.5% area) of pressure-inlet 7.

 Reversed flow on 155 faces (10.2% area) of pressure-outlet 9.
    18  1.9890e-02  2.9733e-03  1.5159e-03  1.4625e-16  0:01:09  982

 Reversed flow on 53 faces (30.0% area) of pressure-inlet 7.

 Reversed flow on 194 faces (11.5% area) of pressure-outlet 9.
    19  1.9062e-02  2.9402e-03  1.5148e-03  1.4701e-16  0:00:55  981

 Reversed flow on 54 faces (30.8% area) of pressure-inlet 7.

 Reversed flow on 152 faces (9.3% area) of pressure-outlet 9.
    20  1.8173e-02  2.9100e-03  1.5125e-03  1.4473e-16  0:00:44  980

 Reversed flow on 54 faces (31.3% area) of pressure-inlet 7.

 Reversed flow on 184 faces (10.1% area) of pressure-outlet 9.
    21  1.7632e-02  2.8803e-03  1.5088e-03  1.4490e-16  0:03:51  979

 Reversed flow on 54 faces (31.8% area) of pressure-inlet 7.

 Reversed flow on 138 faces (8.0% area) of pressure-outlet 9.
    22  1.7322e-02  2.8495e-03  1.5113e-03  1.4461e-16  0:03:05  978

 Reversed flow on 55 faces (32.6% area) of pressure-inlet 7.

 Reversed flow on 194 faces (11.5% area) of pressure-outlet 9.

  iter  continuity  x-velocity  y-velocity      energy     time/iter
    23  1.7250e-02  2.8230e-03  1.5152e-03  1.4693e-16  0:02:27  977

 Reversed flow on 55 faces (33.1% area) of pressure-inlet 7.

 Reversed flow on 142 faces (7.8% area) of pressure-outlet 9.
    24  1.6549e-02  2.7988e-03  1.5181e-03  1.4627e-16  0:01:58  976

 Reversed flow on 56 faces (34.0% area) of pressure-inlet 7.

 Reversed flow on 176 faces (10.4% area) of pressure-outlet 9.
    25  1.6641e-02  2.7760e-03  1.5182e-03  1.4571e-16  0:01:34  975

 Reversed flow on 56 faces (34.6% area) of pressure-inlet 7.

 Reversed flow on 141 faces (7.8% area) of pressure-outlet 9.
    26  1.7130e-02  2.7548e-03  1.5175e-03  1.4563e-16  0:01:15  974

 Reversed flow on 56 faces (35.1% area) of pressure-inlet 7.

 Reversed flow on 156 faces (9.1% area) of pressure-outlet 9.
    27  1.6889e-02  2.7375e-03  1.5160e-03  1.4484e-16  0:01:00  973

 Reversed flow on 55 faces (35.2% area) of pressure-inlet 7.

 Reversed flow on 133 faces (7.1% area) of pressure-outlet 9.
    28  1.6993e-02  2.7220e-03  1.5137e-03  1.4533e-16  0:00:48  972

 Reversed flow on 56 faces (36.2% area) of pressure-inlet 7.

 Reversed flow on 175 faces (9.1% area) of pressure-outlet 9.
    29  1.7257e-02  2.7058e-03  1.5111e-03  1.4540e-16  0:00:38  971

 Reversed flow on 56 faces (36.8% area) of pressure-inlet 7.

 Reversed flow on 142 faces (6.7% area) of pressure-outlet 9.
    30  1.8723e-02  2.6907e-03  1.5072e-03  1.4695e-16  0:03:45  970

 Reversed flow on 55 faces (36.4% area) of pressure-inlet 7.

 Reversed flow on 166 faces (8.2% area) of pressure-outlet 9.
    31  1.7626e-02  2.6756e-03  1.5033e-03  1.4750e-16  0:03:00  969

 Reversed flow on 56 faces (37.3% area) of pressure-inlet 7.

 Reversed flow on 134 faces (6.2% area) of pressure-outlet 9.
    32  1.8524e-02  2.6617e-03  1.4991e-03  1.4564e-16  0:02:24  968

 Reversed flow on 56 faces (37.9% area) of pressure-inlet 7.

 Reversed flow on 139 faces (6.5% area) of pressure-outlet 9.
    33  1.8885e-02  2.6523e-03  1.4942e-03  1.4627e-16  0:01:55  967

 Reversed flow on 57 faces (38.9% area) of pressure-inlet 7.

 Reversed flow on 118 faces (5.6% area) of pressure-outlet 9.

  iter  continuity  x-velocity  y-velocity      energy     time/iter
    34  1.9942e-02  2.6405e-03  1.4901e-03  1.4397e-16  0:01:32  966

 Reversed flow on 57 faces (39.5% area) of pressure-inlet 7.

 Reversed flow on 121 faces (5.6% area) of pressure-outlet 9.
    35  2.1098e-02  2.6271e-03  1.4881e-03  1.4475e-16  0:01:13  965

 Reversed flow on 55 faces (38.6% area) of pressure-inlet 7.

 Reversed flow on 104 faces (4.5% area) of pressure-outlet 9.
    36  2.1884e-02  2.6144e-03  1.4884e-03  1.4477e-16  0:00:59  964

 Reversed flow on 53 faces (38.3% area) of pressure-inlet 7.

 Reversed flow on 100 faces (4.1% area) of pressure-outlet 9.
    37  2.0476e-02  2.5991e-03  1.4879e-03  1.4463e-16  0:00:47  963

 Reversed flow on 52 faces (38.5% area) of pressure-inlet 7.

 Reversed flow on 92 faces (3.5% area) of pressure-outlet 9.
    38  2.0436e-02  2.5860e-03  1.4905e-03  1.4371e-16  0:00:37  962

 Reversed flow on 52 faces (39.1% area) of pressure-inlet 7.

 Reversed flow on 104 faces (9.2% area) of pressure-outlet 9.
    39  2.1490e-02  2.5724e-03  1.4914e-03  1.4582e-16  0:03:42  961

 Reversed flow on 53 faces (40.2% area) of pressure-inlet 7.

 Reversed flow on 102 faces (9.5% area) of pressure-outlet 9.
    40  2.3035e-02  2.5576e-03  1.4940e-03  1.4482e-16  0:02:57  960

 Reversed flow on 52 faces (39.7% area) of pressure-inlet 7.

 Reversed flow on 104 faces (11.9% area) of pressure-outlet 9.
    41  2.3592e-02  2.5454e-03  1.4980e-03  1.4415e-16  0:02:22  959

 Reversed flow on 52 faces (40.3% area) of pressure-inlet 7.

 Reversed flow on 109 faces (13.0% area) of pressure-outlet 9.
    42  2.2818e-02  2.5322e-03  1.5058e-03  1.4394e-16  0:01:53  958

 Reversed flow on 52 faces (40.9% area) of pressure-inlet 7.

 Reversed flow on 107 faces (14.7% area) of pressure-outlet 9.
    43  2.2308e-02  2.5207e-03  1.5110e-03  1.4529e-16  0:01:31  957

 Reversed flow on 50 faces (39.9% area) of pressure-inlet 7.

 Reversed flow on 109 faces (15.3% area) of pressure-outlet 9.
    44  2.3958e-02  2.5092e-03  1.5158e-03  1.4522e-16  0:01:12  956

 Reversed flow on 49 faces (39.9% area) of pressure-inlet 7.

 Reversed flow on 102 faces (13.6% area) of pressure-outlet 9.

  iter  continuity  x-velocity  y-velocity      energy     time/iter
    45  2.4439e-02  2.5018e-03  1.5177e-03  1.4671e-16  0:00:58  955

 Reversed flow on 49 faces (40.6% area) of pressure-inlet 7.

 Reversed flow on 103 faces (14.5% area) of pressure-outlet 9.
    46  2.3629e-02  2.4945e-03  1.5163e-03  1.4674e-16  0:00:46  954

 Reversed flow on 47 faces (39.4% area) of pressure-inlet 7.

 Reversed flow on 107 faces (17.4% area) of pressure-outlet 9.
    47  2.4356e-02  2.4895e-03  1.5123e-03  1.4466e-16  0:00:37  953

 Reversed flow on 39 faces (35.1% area) of pressure-inlet 7.

 Reversed flow on 96 faces (15.3% area) of pressure-outlet 9.
    48  2.3359e-02  2.4815e-03  1.5093e-03  1.4421e-16  0:03:40  952

 Reversed flow on 39 faces (35.6% area) of pressure-inlet 7.

 Reversed flow on 96 faces (16.4% area) of pressure-outlet 9.
    49  2.4200e-02  2.4734e-03  1.5111e-03  1.4546e-16  0:02:56  951

 Reversed flow on 36 faces (33.6% area) of pressure-inlet 7.

 Reversed flow on 88 faces (16.9% area) of pressure-outlet 9.
    50  2.5702e-02  2.4664e-03  1.5115e-03  1.4615e-16  0:02:20  950

 Reversed flow on 36 faces (34.1% area) of pressure-inlet 7.

 Reversed flow on 77 faces (16.4% area) of pressure-outlet 9.
    51  2.6538e-02  2.4657e-03  1.5119e-03  1.4543e-16  0:01:52  949

 Reversed flow on 32 faces (31.2% area) of pressure-inlet 7.

 Reversed flow on 67 faces (17.5% area) of pressure-outlet 9.
    52  3.0304e-02  2.4637e-03  1.5089e-03  1.4625e-16  0:01:30  948

 Reversed flow on 31 faces (30.9% area) of pressure-inlet 7.

 Reversed flow on 63 faces (19.1% area) of pressure-outlet 9.
    53  2.6162e-02  2.4632e-03  1.5069e-03  1.4446e-16  0:01:12  947

 Reversed flow on 30 faces (30.1% area) of pressure-inlet 7.

 Reversed flow on 63 faces (19.9% area) of pressure-outlet 9.
    54  2.5510e-02  2.4619e-03  1.5041e-03  1.4486e-16  0:00:57  946

 Reversed flow on 34 faces (31.7% area) of pressure-inlet 7.

 Reversed flow on 59 faces (18.7% area) of pressure-outlet 9.
    55  2.5447e-02  2.4615e-03  1.5028e-03  1.4414e-16  0:00:46  945

 Reversed flow on 33 faces (30.5% area) of pressure-inlet 7.

 Reversed flow on 62 faces (20.7% area) of pressure-outlet 9.

  iter  continuity  x-velocity  y-velocity      energy     time/iter
    56  2.3734e-02  2.4575e-03  1.5055e-03  1.4314e-16  0:00:37  944

 Reversed flow on 36 faces (32.3% area) of pressure-inlet 7.

 Reversed flow on 63 faces (21.3% area) of pressure-outlet 9.
    57  2.4766e-02  2.4504e-03  1.5078e-03  1.4312e-16  0:03:38  943

 Reversed flow on 37 faces (31.9% area) of pressure-inlet 7.

 Reversed flow on 59 faces (21.3% area) of pressure-outlet 9.
    58  2.4284e-02  2.4447e-03  1.5144e-03  1.4400e-16  0:02:54  942

 Reversed flow on 35 faces (30.0% area) of pressure-inlet 7.

 Reversed flow on 61 faces (22.7% area) of pressure-outlet 9.
    59  2.4430e-02  2.4409e-03  1.5220e-03  1.4395e-16  0:02:19  941

 Reversed flow on 36 faces (30.0% area) of pressure-inlet 7.

 Reversed flow on 61 faces (23.6% area) of pressure-outlet 9.
    60  2.4599e-02  2.4341e-03  1.5278e-03  1.4377e-16  0:01:51  940

 Reversed flow on 37 faces (29.9% area) of pressure-inlet 7.

 Reversed flow on 62 faces (25.0% area) of pressure-outlet 9.
    61  2.6142e-02  2.4319e-03  1.5346e-03  1.4400e-16  0:01:29  939

 Reversed flow on 38 faces (30.7% area) of pressure-inlet 7.

 Reversed flow on 58 faces (23.9% area) of pressure-outlet 9.
    62  2.5229e-02  2.4286e-03  1.5394e-03  1.4446e-16  0:01:11  938

 Reversed flow on 38 faces (29.6% area) of pressure-inlet 7.

 Reversed flow on 63 faces (25.4% area) of pressure-outlet 9.
    63  2.3620e-02  2.4276e-03  1.5458e-03  1.4425e-16  0:00:57  937

 Reversed flow on 40 faces (29.9% area) of pressure-inlet 7.

 Reversed flow on 65 faces (26.1% area) of pressure-outlet 9.
    64  2.4713e-02  2.4234e-03  1.5507e-03  1.4408e-16  0:00:45  936

 Reversed flow on 40 faces (30.0% area) of pressure-inlet 7.

 Reversed flow on 60 faces (24.5% area) of pressure-outlet 9.
    65  2.6970e-02  2.4230e-03  1.5550e-03  1.4451e-16  0:00:36  935

 Reversed flow on 37 faces (25.8% area) of pressure-inlet 7.

 Reversed flow on 61 faces (24.8% area) of pressure-outlet 9.
    66  2.4929e-02  2.4206e-03  1.5602e-03  1.4505e-16  0:03:36  934

 Reversed flow on 36 faces (24.5% area) of pressure-inlet 7.

 Reversed flow on 69 faces (26.0% area) of pressure-outlet 9.

  iter  continuity  x-velocity  y-velocity      energy     time/iter
    67  2.3496e-02  2.4196e-03  1.5631e-03  1.4203e-16  0:02:52  933

 Reversed flow on 34 faces (22.7% area) of pressure-inlet 7.

 Reversed flow on 69 faces (24.8% area) of pressure-outlet 9.
    68  2.3428e-02  2.4193e-03  1.5680e-03  1.4400e-16  0:02:18  932

 Reversed flow on 35 faces (22.2% area) of pressure-inlet 7.

 Reversed flow on 87 faces (27.8% area) of pressure-outlet 9.
    69  2.2347e-02  2.4232e-03  1.5678e-03  1.4446e-16  0:01:50  931

 Reversed flow on 33 faces (19.5% area) of pressure-inlet 7.

 Reversed flow on 95 faces (29.2% area) of pressure-outlet 9.
    70  2.2624e-02  2.4234e-03  1.5704e-03  1.4480e-16  0:01:28  930

 Reversed flow on 31 faces (17.0% area) of pressure-inlet 7.

 Reversed flow on 99 faces (30.1% area) of pressure-outlet 9.
    71  2.3234e-02  2.4272e-03  1.5699e-03  1.4550e-16  0:01:10  929

 Reversed flow on 29 faces (13.5% area) of pressure-inlet 7.

 Reversed flow on 94 faces (29.2% area) of pressure-outlet 9.
    72  2.4009e-02  2.4308e-03  1.5696e-03  1.4603e-16  0:00:56  928

 Reversed flow on 28 faces (11.3% area) of pressure-inlet 7.

 Reversed flow on 95 faces (29.6% area) of pressure-outlet 9.
    73  2.3571e-02  2.4351e-03  1.5689e-03  1.4515e-16  0:00:45  927

 Reversed flow on 29 faces (11.6% area) of pressure-inlet 7.

 Reversed flow on 104 faces (30.7% area) of pressure-outlet 9.
    74  2.3375e-02  2.4410e-03  1.5685e-03  1.4729e-16  0:00:36  926

 Reversed flow on 32 faces (12.8% area) of pressure-inlet 7.

 Reversed flow on 111 faces (32.6% area) of pressure-outlet 9.
    75  2.3062e-02  2.4476e-03  1.5664e-03  1.4776e-16  0:00:29  925

 Reversed flow on 34 faces (13.4% area) of pressure-inlet 7.

 Reversed flow on 117 faces (33.4% area) of pressure-outlet 9.
    76  2.3205e-02  2.4566e-03  1.5651e-03  1.4634e-16  0:03:28  924

 Reversed flow on 35 faces (13.6% area) of pressure-inlet 7.

 Reversed flow on 122 faces (33.6% area) of pressure-outlet 9.
    77  2.3329e-02  2.4697e-03  1.5617e-03  1.4615e-16  0:02:46  923

 Reversed flow on 38 faces (14.3% area) of pressure-inlet 7.

 Reversed flow on 130 faces (34.3% area) of pressure-outlet 9.

  iter  continuity  x-velocity  y-velocity      energy     time/iter
    78  2.3257e-02  2.4820e-03  1.5620e-03  1.4474e-16  0:02:13  922

 Reversed flow on 38 faces (13.7% area) of pressure-inlet 7.

 Reversed flow on 130 faces (35.1% area) of pressure-outlet 9.
    79  2.3335e-02  2.4962e-03  1.5573e-03  1.4488e-16  0:01:46  921

 Reversed flow on 40 faces (14.0% area) of pressure-inlet 7.

 Reversed flow on 122 faces (33.8% area) of pressure-outlet 9.
    80  2.3247e-02  2.5077e-03  1.5537e-03  1.4513e-16  0:01:25  920

 Reversed flow on 41 faces (14.0% area) of pressure-inlet 7.

 Reversed flow on 118 faces (34.0% area) of pressure-outlet 9.
    81  2.3101e-02  2.5206e-03  1.5508e-03  1.4426e-16  0:01:08  919

 Reversed flow on 41 faces (13.6% area) of pressure-inlet 7.

 Reversed flow on 122 faces (36.6% area) of pressure-outlet 9.
    82  2.3099e-02  2.5331e-03  1.5507e-03  1.4499e-16  0:00:54  918

 Reversed flow on 41 faces (13.2% area) of pressure-inlet 7.

 Reversed flow on 119 faces (36.9% area) of pressure-outlet 9.
    83  2.2919e-02  2.5492e-03  1.5498e-03  1.4596e-16  0:00:43  917

 Reversed flow on 41 faces (12.8% area) of pressure-inlet 7.

 Reversed flow on 122 faces (38.2% area) of pressure-outlet 9.
    84  2.3020e-02  2.5635e-03  1.5498e-03  1.4426e-16  0:00:35  916

 Reversed flow on 41 faces (12.4% area) of pressure-inlet 7.

 Reversed flow on 121 faces (38.1% area) of pressure-outlet 9.
    85  2.3792e-02  2.5812e-03  1.5514e-03  1.4278e-16  0:03:31  915

 Reversed flow on 41 faces (12.0% area) of pressure-inlet 7.

 Reversed flow on 111 faces (36.2% area) of pressure-outlet 9.
    86  2.4143e-02  2.6017e-03  1.5564e-03  1.4297e-16  0:02:48  914

 Reversed flow on 42 faces (11.8% area) of pressure-inlet 7.

 Reversed flow on 125 faces (39.1% area) of pressure-outlet 9.
    87  2.4611e-02  2.6181e-03  1.5641e-03  1.4418e-16  0:02:14  913

 Reversed flow on 44 faces (12.2% area) of pressure-inlet 7.

 Reversed flow on 144 faces (44.0% area) of pressure-outlet 9.
    88  2.4704e-02  2.6334e-03  1.5729e-03  1.4402e-16  0:01:47  912

 Reversed flow on 46 faces (12.6% area) of pressure-inlet 7.

 Reversed flow on 162 faces (46.9% area) of pressure-outlet 9.

  iter  continuity  x-velocity  y-velocity      energy     time/iter
    89  2.4222e-02  2.6486e-03  1.5816e-03  1.4545e-16  0:01:26  911

 Reversed flow on 49 faces (13.2% area) of pressure-inlet 7.

 Reversed flow on 201 faces (52.7% area) of pressure-outlet 9.
    90  2.4279e-02  2.6637e-03  1.5903e-03  1.4548e-16  0:01:09  910

 Reversed flow on 52 faces (13.9% area) of pressure-inlet 7.

 Reversed flow on 225 faces (56.0% area) of pressure-outlet 9.
    91  2.5043e-02  2.6764e-03  1.5998e-03  1.4433e-16  0:00:55  909

 Reversed flow on 54 faces (14.1% area) of pressure-inlet 7.

 Reversed flow on 264 faces (58.8% area) of pressure-outlet 9.
    92  2.4687e-02  2.6890e-03  1.6135e-03  1.4413e-16  0:00:44  908

 Reversed flow on 57 faces (14.5% area) of pressure-inlet 7.

 Reversed flow on 272 faces (58.5% area) of pressure-outlet 9.
    93  2.5127e-02  2.7021e-03  1.6221e-03  1.4532e-16  0:00:35  907

 Reversed flow on 58 faces (14.2% area) of pressure-inlet 7.

 Reversed flow on 285 faces (60.7% area) of pressure-outlet 9.
    94  2.5370e-02  2.7129e-03  1.6299e-03  1.4387e-16  0:03:29  906

 Reversed flow on 60 faces (14.5% area) of pressure-inlet 7.

 Reversed flow on 297 faces (62.9% area) of pressure-outlet 9.
    95  2.5326e-02  2.7252e-03  1.6397e-03  1.4656e-16  0:02:47  905

 Reversed flow on 64 faces (15.1% area) of pressure-inlet 7.

 Reversed flow on 308 faces (64.2% area) of pressure-outlet 9.
    96  2.6487e-02  2.7331e-03  1.6446e-03  1.4670e-16  0:02:14  904

 Reversed flow on 67 faces (15.5% area) of pressure-inlet 7.

 Reversed flow on 321 faces (66.9% area) of pressure-outlet 9.
    97  2.7092e-02  2.7412e-03  1.6537e-03  1.4753e-16  0:01:47  903

 Reversed flow on 70 faces (15.9% area) of pressure-inlet 7.

 Reversed flow on 356 faces (69.6% area) of pressure-outlet 9.
    98  2.7389e-02  2.7503e-03  1.6607e-03  1.4683e-16  0:01:25  902

 Reversed flow on 75 faces (16.8% area) of pressure-inlet 7.

 Reversed flow on 350 faces (69.2% area) of pressure-outlet 9.
    99  2.9647e-02  2.7619e-03  1.6591e-03  1.4760e-16  0:01:08  901

 Reversed flow on 78 faces (16.9% area) of pressure-inlet 7.

 Reversed flow on 367 faces (68.6% area) of pressure-outlet 9.

  iter  continuity  x-velocity  y-velocity      energy     time/iter
   100  3.1059e-02  2.7736e-03  1.6638e-03  1.4692e-16  0:00:54  900

 Reversed flow on 82 faces (17.3% area) of pressure-inlet 7.

 Reversed flow on 347 faces (66.0% area) of pressure-outlet 9.
   101  3.1881e-02  2.7904e-03  1.6649e-03  1.4684e-16  0:00:44  899

 Reversed flow on 86 faces (17.7% area) of pressure-inlet 7.

 Reversed flow on 363 faces (68.5% area) of pressure-outlet 9.
   102  3.3041e-02  2.8077e-03  1.6710e-03  1.4461e-16  0:03:34  898

 Reversed flow on 92 faces (18.6% area) of pressure-inlet 7.

 Reversed flow on 374 faces (66.1% area) of pressure-outlet 9.
   103  3.2722e-02  2.8234e-03  1.6750e-03  1.4575e-16  0:02:51  897

 Reversed flow on 96 faces (18.7% area) of pressure-inlet 7.

 Reversed flow on 386 faces (64.6% area) of pressure-outlet 9.
   104  3.3721e-02  2.8430e-03  1.6801e-03  1.4658e-16  0:02:17  896

 Reversed flow on 105 faces (19.9% area) of pressure-inlet 7.

 Reversed flow on 383 faces (61.5% area) of pressure-outlet 9.
   105  3.5706e-02  2.8682e-03  1.6880e-03  1.4706e-16  0:01:49  895

 Reversed flow on 109 faces (19.9% area) of pressure-inlet 7.

 Reversed flow on 375 faces (55.9% area) of pressure-outlet 9.
   106  3.7087e-02  2.9024e-03  1.6931e-03  1.4667e-16  0:01:27  894

 Reversed flow on 117 faces (20.5% area) of pressure-inlet 7.

 Reversed flow on 368 faces (54.1% area) of pressure-outlet 9.
   107  3.6563e-02  2.9428e-03  1.7046e-03  1.4723e-16  0:01:10  893

 Reversed flow on 127 faces (21.0% area) of pressure-inlet 7.

 Reversed flow on 411 faces (58.8% area) of pressure-outlet 9.
   108  3.5523e-02  2.9782e-03  1.7134e-03  1.4756e-16  0:00:56  892

 Reversed flow on 202 faces (24.1% area) of pressure-inlet 7.

 Reversed flow on 393 faces (55.1% area) of pressure-outlet 9.
   109  3.4790e-02  3.0032e-03  1.7258e-03  1.4721e-16  0:00:45  891

 Reversed flow on 209 faces (23.9% area) of pressure-inlet 7.

 Reversed flow on 408 faces (55.0% area) of pressure-outlet 9.
   110  3.4818e-02  3.0389e-03  1.7406e-03  1.4724e-16  0:00:36  890

 Reversed flow on 190 faces (23.7% area) of pressure-inlet 7.

 Reversed flow on 417 faces (56.3% area) of pressure-outlet 9.

  iter  continuity  x-velocity  y-velocity      energy     time/iter
   111  3.4731e-02  3.0761e-03  1.7554e-03  1.4795e-16  0:03:26  889

 Reversed flow on 207 faces (23.9% area) of pressure-inlet 7.

 Reversed flow on 413 faces (53.8% area) of pressure-outlet 9.
   112  3.3661e-02  3.1125e-03  1.7649e-03  1.4740e-16  0:02:45  888

 Reversed flow on 208 faces (23.5% area) of pressure-inlet 7.

 Reversed flow on 371 faces (50.9% area) of pressure-outlet 9.
   113  3.3318e-02  3.1477e-03  1.7744e-03  1.4705e-16  0:02:12  887

 Reversed flow on 208 faces (23.5% area) of pressure-inlet 7.

 Reversed flow on 431 faces (57.7% area) of pressure-outlet 9.
   114  3.3982e-02  3.1799e-03  1.7823e-03  1.4791e-16  0:01:45  886

 Reversed flow on 208 faces (23.5% area) of pressure-inlet 7.

 Reversed flow on 396 faces (53.0% area) of pressure-outlet 9.
   115  3.3735e-02  3.2104e-03  1.7927e-03  1.4688e-16  0:01:24  885

 Reversed flow on 208 faces (23.5% area) of pressure-inlet 7.

 Reversed flow on 382 faces (53.6% area) of pressure-outlet 9.
   116  3.6050e-02  3.2521e-03  1.8039e-03  1.4751e-16  0:01:07  884

 Reversed flow on 208 faces (23.5% area) of pressure-inlet 7.

 Reversed flow on 361 faces (50.7% area) of pressure-outlet 9.
   117  3.6735e-02  3.2919e-03  1.8064e-03  1.4723e-16  0:00:54  883

 Reversed flow on 208 faces (23.5% area) of pressure-inlet 7.

 Reversed flow on 410 faces (53.6% area) of pressure-outlet 9.
   118  3.6469e-02  3.3271e-03  1.8156e-03  1.4694e-16  0:00:43  882

 Reversed flow on 210 faces (24.3% area) of pressure-inlet 7.

 Reversed flow on 407 faces (51.7% area) of pressure-outlet 9.
   119  3.7733e-02  3.3548e-03  1.8234e-03  1.4534e-16  0:00:34  881

 Reversed flow on 212 faces (25.0% area) of pressure-inlet 7.

 Reversed flow on 423 faces (52.3% area) of pressure-outlet 9.
   120  3.5169e-02  3.3836e-03  1.8272e-03  1.4687e-16  0:03:23  880

 Reversed flow on 210 faces (24.3% area) of pressure-inlet 7.

 Reversed flow on 398 faces (52.5% area) of pressure-outlet 9.
   121  3.8271e-02  3.4075e-03  1.8386e-03  1.4715e-16  0:02:43  879

 Reversed flow on 214 faces (25.9% area) of pressure-inlet 7.

 Reversed flow on 379 faces (50.9% area) of pressure-outlet 9.

  iter  continuity  x-velocity  y-velocity      energy     time/iter
   122  3.7511e-02  3.4274e-03  1.8464e-03  1.4547e-16  0:02:10  878

 Reversed flow on 212 faces (25.1% area) of pressure-inlet 7.

 Reversed flow on 364 faces (49.8% area) of pressure-outlet 9.
   123  3.9565e-02  3.4574e-03  1.8583e-03  1.4560e-16  0:01:44  877

 Reversed flow on 214 faces (25.9% area) of pressure-inlet 7.

 Reversed flow on 388 faces (52.4% area) of pressure-outlet 9.
   124  4.2054e-02  3.4815e-03  1.8756e-03  1.4519e-16  0:01:23  876

 Reversed flow on 214 faces (25.9% area) of pressure-inlet 7.

 Reversed flow on 409 faces (55.4% area) of pressure-outlet 9.
   125  3.9534e-02  3.4964e-03  1.8786e-03  1.4438e-16  0:01:06  875

 Reversed flow on 213 faces (25.5% area) of pressure-inlet 7.

 Reversed flow on 416 faces (54.1% area) of pressure-outlet 9.
   126  4.0781e-02  3.5190e-03  1.8942e-03  1.4476e-16  0:00:53  874

 Reversed flow on 217 faces (27.1% area) of pressure-inlet 7.

 Reversed flow on 417 faces (55.9% area) of pressure-outlet 9.
   127  4.1617e-02  3.5387e-03  1.9039e-03  1.4454e-16  0:00:42  873

 Reversed flow on 213 faces (25.5% area) of pressure-inlet 7.

 Reversed flow on 423 faces (54.1% area) of pressure-outlet 9.
   128  4.0761e-02  3.5589e-03  1.9181e-03  1.4493e-16  0:00:34  872

 Reversed flow on 216 faces (26.7% area) of pressure-inlet 7.

 Reversed flow on 407 faces (54.3% area) of pressure-outlet 9.
   129  4.1009e-02  3.5798e-03  1.9327e-03  1.4438e-16  0:03:21  871

 Reversed flow on 219 faces (28.0% area) of pressure-inlet 7.

 Reversed flow on 398 faces (53.9% area) of pressure-outlet 9.
   130  4.2673e-02  3.5992e-03  1.9498e-03  1.4654e-16  0:02:41  870

 Reversed flow on 217 faces (27.2% area) of pressure-inlet 7.

 Reversed flow on 383 faces (51.0% area) of pressure-outlet 9.
   131  4.3085e-02  3.6232e-03  1.9725e-03  1.4495e-16  0:02:08  869

 Reversed flow on 218 faces (27.6% area) of pressure-inlet 7.

 Reversed flow on 413 faces (53.6% area) of pressure-outlet 9.
   132  4.1774e-02  3.6487e-03  1.9940e-03  1.4508e-16  0:01:43  868

 Reversed flow on 219 faces (28.0% area) of pressure-inlet 7.

 Reversed flow on 427 faces (55.6% area) of pressure-outlet 9.

  iter  continuity  x-velocity  y-velocity      energy     time/iter
   133  4.4491e-02  3.6746e-03  2.0160e-03  1.4531e-16  0:01:22  867

 Reversed flow on 219 faces (28.0% area) of pressure-inlet 7.

 Reversed flow on 409 faces (51.7% area) of pressure-outlet 9.
   134  4.5781e-02  3.7018e-03  2.0386e-03  1.4534e-16  0:01:06  866

 Reversed flow on 221 faces (28.9% area) of pressure-inlet 7.

 Reversed flow on 419 faces (54.1% area) of pressure-outlet 9.
   135  4.6158e-02  3.7492e-03  2.0678e-03  1.4308e-16  0:00:52  865

 Reversed flow on 219 faces (28.1% area) of pressure-inlet 7.

 Reversed flow on 403 faces (50.3% area) of pressure-outlet 9.
   136  4.8220e-02  3.7835e-03  2.0934e-03  1.4375e-16  0:00:42  864

 Reversed flow on 221 faces (28.9% area) of pressure-inlet 7.

 Reversed flow on 387 faces (50.6% area) of pressure-outlet 9.
   137  4.7592e-02  3.8166e-03  2.1168e-03  1.4460e-16  0:00:33  863

 Reversed flow on 220 faces (28.5% area) of pressure-inlet 7.

 Reversed flow on 407 faces (50.1% area) of pressure-outlet 9.
   138  4.7621e-02  3.8484e-03  2.1450e-03  1.4431e-16  0:03:19  862

 Reversed flow on 220 faces (28.5% area) of pressure-inlet 7.

 Reversed flow on 438 faces (55.7% area) of pressure-outlet 9.
   139  4.9682e-02  3.8777e-03  2.1592e-03  1.4531e-16  0:02:39  861

 Reversed flow on 221 faces (29.0% area) of pressure-inlet 7.

 Reversed flow on 425 faces (52.7% area) of pressure-outlet 9.
   140  4.6551e-02  3.9068e-03  2.1701e-03  1.4458e-16  0:02:07  860

 Reversed flow on 220 faces (28.5% area) of pressure-inlet 7.

 Reversed flow on 430 faces (56.1% area) of pressure-outlet 9.
   141  5.0619e-02  3.9321e-03  2.1838e-03  1.4542e-16  0:01:42  859

 Reversed flow on 219 faces (28.1% area) of pressure-inlet 7.

 Reversed flow on 431 faces (57.6% area) of pressure-outlet 9.
   142  4.9638e-02  3.9465e-03  2.1852e-03  1.4321e-16  0:01:21  858

 Reversed flow on 221 faces (29.0% area) of pressure-inlet 7.

 Reversed flow on 438 faces (53.4% area) of pressure-outlet 9.
   143  5.1209e-02  3.9806e-03  2.1918e-03  1.4355e-16  0:01:05  857

 Reversed flow on 220 faces (28.5% area) of pressure-inlet 7.

 Reversed flow on 457 faces (59.6% area) of pressure-outlet 9.

  iter  continuity  x-velocity  y-velocity      energy     time/iter
   144  5.1383e-02  4.0102e-03  2.2065e-03  1.4338e-16  0:00:52  856

 Reversed flow on 221 faces (29.0% area) of pressure-inlet 7.

 Reversed flow on 433 faces (54.9% area) of pressure-outlet 9.
   145  5.0123e-02  4.0317e-03  2.2217e-03  1.4398e-16  0:00:41  855

 Reversed flow on 221 faces (29.0% area) of pressure-inlet 7.

 Reversed flow on 452 faces (58.5% area) of pressure-outlet 9.
   146  4.9428e-02  4.0370e-03  2.2246e-03  1.4348e-16  0:00:33  854

 Reversed flow on 220 faces (28.5% area) of pressure-inlet 7.

 Reversed flow on 445 faces (56.4% area) of pressure-outlet 9.
   147  5.0959e-02  4.0444e-03  2.2434e-03  1.4290e-16  0:03:17  853

 Reversed flow on 221 faces (29.0% area) of pressure-inlet 7.

 Reversed flow on 448 faces (55.7% area) of pressure-outlet 9.
   148  5.3497e-02  4.0672e-03  2.2387e-03  1.4228e-16  0:02:37  852

 Reversed flow on 218 faces (28.1% area) of pressure-inlet 7.

 Reversed flow on 450 faces (58.1% area) of pressure-outlet 9.
   149  5.1946e-02  4.0906e-03  2.2475e-03  1.4372e-16  0:02:06  851

 Reversed flow on 218 faces (28.1% area) of pressure-inlet 7.

 Reversed flow on 463 faces (57.4% area) of pressure-outlet 9.
   150  5.0134e-02  4.1112e-03  2.2543e-03  1.4265e-16  0:01:41  850

 Reversed flow on 217 faces (28.1% area) of pressure-inlet 7.

 Reversed flow on 472 faces (58.8% area) of pressure-outlet 9.
   151  5.0310e-02  4.1256e-03  2.2634e-03  1.4264e-16  0:01:20  849

 Reversed flow on 214 faces (27.1% area) of pressure-inlet 7.

 Reversed flow on 475 faces (59.4% area) of pressure-outlet 9.
   152  5.1129e-02  4.1331e-03  2.2515e-03  1.4227e-16  0:01:04  848

 Reversed flow on 215 faces (27.6% area) of pressure-inlet 7.

 Reversed flow on 473 faces (58.6% area) of pressure-outlet 9.
   153  4.9605e-02  4.1188e-03  2.2667e-03  1.4291e-16  0:00:51  847

 Reversed flow on 212 faces (26.7% area) of pressure-inlet 7.

 Reversed flow on 452 faces (60.0% area) of pressure-outlet 9.
   154  5.3571e-02  4.1330e-03  2.2764e-03  1.4349e-16  0:00:41  846

 Reversed flow on 214 faces (27.6% area) of pressure-inlet 7.

 Reversed flow on 474 faces (61.0% area) of pressure-outlet 9.

  iter  continuity  x-velocity  y-velocity      energy     time/iter
   155  5.3102e-02  4.1427e-03  2.2852e-03  1.4421e-16  0:03:22  845

 Reversed flow on 211 faces (26.7% area) of pressure-inlet 7.

 Reversed flow on 467 faces (58.3% area) of pressure-outlet 9.
   156  4.9634e-02  4.1524e-03  2.2909e-03  1.4444e-16  0:02:41  844

 Reversed flow on 212 faces (27.5% area) of pressure-inlet 7.

 Reversed flow on 481 faces (62.2% area) of pressure-outlet 9.
   157  5.6169e-02  4.1399e-03  2.2927e-03  1.4611e-16  0:02:09  843

 Reversed flow on 208 faces (26.2% area) of pressure-inlet 7.

 Reversed flow on 473 faces (59.8% area) of pressure-outlet 9.
   158  5.2568e-02  4.1343e-03  2.2910e-03  1.4517e-16  0:01:43  842

 Reversed flow on 209 faces (27.0% area) of pressure-inlet 7.

 Reversed flow on 442 faces (60.9% area) of pressure-outlet 9.
   159  5.6096e-02  4.1161e-03  2.3001e-03  1.4624e-16  0:01:22  841

 Reversed flow on 194 faces (26.4% area) of pressure-inlet 7.

 Reversed flow on 438 faces (57.4% area) of pressure-outlet 9.
   160  4.9671e-02  4.1319e-03  2.2944e-03  1.4701e-16  0:01:06  840

 Reversed flow on 189 faces (26.3% area) of pressure-inlet 7.

 Reversed flow on 425 faces (58.0% area) of pressure-outlet 9.
   161  4.6750e-02  4.1234e-03  2.3009e-03  1.4716e-16  0:00:53  839

 Reversed flow on 183 faces (25.8% area) of pressure-inlet 7.

 Reversed flow on 406 faces (56.9% area) of pressure-outlet 9.
   162  4.7838e-02  4.1335e-03  2.2965e-03  1.4699e-16  0:00:42  838

 Reversed flow on 178 faces (25.2% area) of pressure-inlet 7.

 Reversed flow on 430 faces (57.3% area) of pressure-outlet 9.
   163  4.5571e-02  4.1428e-03  2.3010e-03  1.4661e-16  0:00:34  837

 Reversed flow on 173 faces (24.6% area) of pressure-inlet 7.

 Reversed flow on 411 faces (56.4% area) of pressure-outlet 9.
   164  4.6950e-02  4.1403e-03  2.3056e-03  1.4620e-16  0:03:14  836

 Reversed flow on 170 faces (25.3% area) of pressure-inlet 7.

 Reversed flow on 410 faces (58.5% area) of pressure-outlet 9.
   165  4.4610e-02  4.1699e-03  2.3110e-03  1.4596e-16  0:02:35  835

 Reversed flow on 164 faces (24.4% area) of pressure-inlet 7.

 Reversed flow on 400 faces (56.8% area) of pressure-outlet 9.

  iter  continuity  x-velocity  y-velocity      energy     time/iter
   166  4.4361e-02  4.1744e-03  2.3147e-03  1.4562e-16  0:02:04  834

 Reversed flow on 161 faces (24.7% area) of pressure-inlet 7.

 Reversed flow on 389 faces (56.9% area) of pressure-outlet 9.
   167  4.1760e-02  4.1898e-03  2.3191e-03  1.4420e-16  0:01:39  833

 Reversed flow on 155 faces (23.7% area) of pressure-inlet 7.

 Reversed flow on 384 faces (58.6% area) of pressure-outlet 9.
   168  4.3043e-02  4.1735e-03  2.3264e-03  1.4444e-16  0:01:19  832

 Reversed flow on 152 faces (23.6% area) of pressure-inlet 7.

 Reversed flow on 389 faces (59.7% area) of pressure-outlet 9.
   169  4.0276e-02  4.1790e-03  2.3327e-03  1.4504e-16  0:01:03  831

 Reversed flow on 149 faces (23.9% area) of pressure-inlet 7.

 Reversed flow on 387 faces (60.5% area) of pressure-outlet 9.
   170  4.5022e-02  4.1827e-03  2.3366e-03  1.4527e-16  0:00:50  830

 Reversed flow on 145 faces (23.7% area) of pressure-inlet 7.

 Reversed flow on 384 faces (60.3% area) of pressure-outlet 9.
   171  4.1758e-02  4.2133e-03  2.3412e-03  1.4385e-16  0:00:40  829

 Reversed flow on 127 faces (22.7% area) of pressure-inlet 7.

 Reversed flow on 403 faces (60.8% area) of pressure-outlet 9.
   172  4.0695e-02  4.2435e-03  2.3478e-03  1.4456e-16  0:00:32  828

 Reversed flow on 117 faces (22.2% area) of pressure-inlet 7.

 Reversed flow on 387 faces (59.2% area) of pressure-outlet 9.
   173  4.0317e-02  4.2599e-03  2.3595e-03  1.4458e-16  0:00:26  827

 Reversed flow on 116 faces (22.5% area) of pressure-inlet 7.

 Reversed flow on 378 faces (58.6% area) of pressure-outlet 9.
   174  4.0027e-02  4.2581e-03  2.3608e-03  1.4505e-16  0:03:06  826

 Reversed flow on 115 faces (22.4% area) of pressure-inlet 7.

 Reversed flow on 390 faces (60.6% area) of pressure-outlet 9.
   175  3.9207e-02  4.2556e-03  2.3721e-03  1.4584e-16  0:02:28  825

 Reversed flow on 111 faces (21.5% area) of pressure-inlet 7.

 Reversed flow on 380 faces (60.7% area) of pressure-outlet 9.
   176  4.0412e-02  4.2674e-03  2.3818e-03  1.4533e-16  0:01:59  824

 Reversed flow on 112 faces (22.5% area) of pressure-inlet 7.

 Reversed flow on 386 faces (60.9% area) of pressure-outlet 9.

  iter  continuity  x-velocity  y-velocity      energy     time/iter
   177  4.1924e-02  4.2816e-03  2.3962e-03  1.4525e-16  0:01:35  823

 Reversed flow on 108 faces (21.2% area) of pressure-inlet 7.

 Reversed flow on 388 faces (61.8% area) of pressure-outlet 9.
   178  4.1194e-02  4.2988e-03  2.4210e-03  1.4422e-16  0:01:16  822

 Reversed flow on 106 faces (21.1% area) of pressure-inlet 7.

 Reversed flow on 400 faces (63.2% area) of pressure-outlet 9.
   179  4.1692e-02  4.3152e-03  2.4406e-03  1.4524e-16  0:01:01  821

 Reversed flow on 111 faces (21.2% area) of pressure-inlet 7.

 Reversed flow on 400 faces (64.1% area) of pressure-outlet 9.
   180  4.3407e-02  4.3220e-03  2.4621e-03  1.4612e-16  0:00:48  820

 Reversed flow on 171 faces (22.4% area) of pressure-inlet 7.

 Reversed flow on 386 faces (64.0% area) of pressure-outlet 9.
   181  4.5010e-02  4.3223e-03  2.4848e-03  1.4512e-16  0:00:39  819

 Reversed flow on 191 faces (23.2% area) of pressure-inlet 7.

 Reversed flow on 384 faces (63.4% area) of pressure-outlet 9.
   182  4.6465e-02  4.3265e-03  2.5060e-03  1.4533e-16  0:00:31  818

 Reversed flow on 192 faces (23.3% area) of pressure-inlet 7.

 Reversed flow on 403 faces (65.4% area) of pressure-outlet 9.
   183  5.3808e-02  4.3421e-03  2.5260e-03  1.4595e-16  0:03:08  817

 Reversed flow on 192 faces (23.0% area) of pressure-inlet 7.

 Reversed flow on 390 faces (65.3% area) of pressure-outlet 9.
   184  4.8019e-02  4.3595e-03  2.5479e-03  1.4481e-16  0:02:30  816

 Reversed flow on 194 faces (23.4% area) of pressure-inlet 7.

 Reversed flow on 374 faces (65.3% area) of pressure-outlet 9.
   185  5.1528e-02  4.3723e-03  2.5626e-03  1.4614e-16  0:02:00  815

 Reversed flow on 194 faces (23.0% area) of pressure-inlet 7.

 Reversed flow on 368 faces (63.3% area) of pressure-outlet 9.
   186  5.1816e-02  4.3886e-03  2.5710e-03  1.4499e-16  0:01:36  814

 Reversed flow on 194 faces (22.6% area) of pressure-inlet 7.

 Reversed flow on 393 faces (66.2% area) of pressure-outlet 9.
   187  5.8500e-02  4.3724e-03  2.5792e-03  1.4704e-16  0:01:17  813

 Reversed flow on 198 faces (23.8% area) of pressure-inlet 7.

 Reversed flow on 357 faces (62.8% area) of pressure-outlet 9.

  iter  continuity  x-velocity  y-velocity      energy     time/iter
   188  5.2716e-02  4.3722e-03  2.5788e-03  1.4553e-16  0:01:01  812

 Reversed flow on 195 faces (22.6% area) of pressure-inlet 7.

 Reversed flow on 348 faces (63.5% area) of pressure-outlet 9.
   189  5.4740e-02  4.3647e-03  2.5893e-03  1.4440e-16  0:00:49  811

 Reversed flow on 198 faces (23.8% area) of pressure-inlet 7.

 Reversed flow on 358 faces (62.4% area) of pressure-outlet 9.
   190  5.7489e-02  4.3623e-03  2.6049e-03  1.4470e-16  0:00:39  810

 Reversed flow on 198 faces (23.4% area) of pressure-inlet 7.

 Reversed flow on 380 faces (64.8% area) of pressure-outlet 9.
   191  5.2027e-02  4.3606e-03  2.6086e-03  1.4686e-16  0:00:31  809

 Reversed flow on 199 faces (23.6% area) of pressure-inlet 7.

 Reversed flow on 347 faces (61.8% area) of pressure-outlet 9.
   192  6.7663e-02  4.3401e-03  2.6117e-03  1.4800e-16  0:00:25  808

 Reversed flow on 199 faces (23.6% area) of pressure-inlet 7.

 Reversed flow on 385 faces (65.1% area) of pressure-outlet 9.
   193  5.3137e-02  4.3413e-03  2.6109e-03  1.4919e-16  0:03:01  807

 Reversed flow on 200 faces (23.8% area) of pressure-inlet 7.

 Reversed flow on 357 faces (62.6% area) of pressure-outlet 9.
   194  5.3802e-02  4.3400e-03  2.6063e-03  1.4764e-16  0:02:25  806

 Reversed flow on 199 faces (23.2% area) of pressure-inlet 7.

 Reversed flow on 367 faces (63.0% area) of pressure-outlet 9.
   195  5.6778e-02  4.3557e-03  2.6089e-03  1.4842e-16  0:01:56  805

 Reversed flow on 198 faces (22.9% area) of pressure-inlet 7.

 Reversed flow on 347 faces (60.6% area) of pressure-outlet 9.
   196  5.4144e-02  4.3572e-03  2.6239e-03  1.4744e-16  0:01:33  804

 Reversed flow on 198 faces (22.9% area) of pressure-inlet 7.

 Reversed flow on 341 faces (59.7% area) of pressure-outlet 9.
   197  5.9876e-02  4.3502e-03  2.6467e-03  1.4768e-16  0:01:14  803

 Reversed flow on 199 faces (23.0% area) of pressure-inlet 7.

 Reversed flow on 332 faces (57.7% area) of pressure-outlet 9.
   198  6.2055e-02  4.3714e-03  2.6718e-03  1.4838e-16  0:00:59  802

 Reversed flow on 198 faces (22.6% area) of pressure-inlet 7.

 Reversed flow on 322 faces (57.8% area) of pressure-outlet 9.

  iter  continuity  x-velocity  y-velocity      energy     time/iter
   199  5.5742e-02  4.4117e-03  2.6811e-03  1.4682e-16  0:00:47  801

 Reversed flow on 201 faces (23.5% area) of pressure-inlet 7.

 Reversed flow on 341 faces (56.0% area) of pressure-outlet 9.
   200  5.6320e-02  4.4052e-03  2.6930e-03  1.4696e-16  0:00:38  800

 Reversed flow on 198 faces (22.3% area) of pressure-inlet 7.

 Reversed flow on 301 faces (48.4% area) of pressure-outlet 9.
   201  7.5432e-02  4.3650e-03  2.6888e-03  1.4853e-16  0:03:10  799

 Reversed flow on 201 faces (23.4% area) of pressure-inlet 7.

 Reversed flow on 293 faces (49.0% area) of pressure-outlet 9.
   202  6.5248e-02  4.3512e-03  2.6760e-03  1.4963e-16  0:02:32  798

 Reversed flow on 198 faces (21.9% area) of pressure-inlet 7.

 Reversed flow on 307 faces (48.5% area) of pressure-outlet 9.
   203  5.0974e-02  4.3601e-03  2.6696e-03  1.4882e-16  0:02:01  797

 Reversed flow on 198 faces (22.2% area) of pressure-inlet 7.

 Reversed flow on 316 faces (45.9% area) of pressure-outlet 9.
   204  5.3452e-02  4.3301e-03  2.6635e-03  1.4924e-16  0:01:37  796

 Reversed flow on 199 faces (22.3% area) of pressure-inlet 7.

 Reversed flow on 257 faces (41.5% area) of pressure-outlet 9.
   205  5.3208e-02  4.2811e-03  2.6501e-03  1.4631e-16  0:01:17  795

 Reversed flow on 200 faces (22.5% area) of pressure-inlet 7.

 Reversed flow on 309 faces (41.9% area) of pressure-outlet 9.
   206  4.9396e-02  4.2457e-03  2.6349e-03  1.4737e-16  0:01:02  794

 Reversed flow on 198 faces (21.7% area) of pressure-inlet 7.

 Reversed flow on 288 faces (39.9% area) of pressure-outlet 9.
   207  5.1861e-02  4.2363e-03  2.6277e-03  1.4657e-16  0:00:49  793

 Reversed flow on 198 faces (21.7% area) of pressure-inlet 7.

 Reversed flow on 289 faces (37.3% area) of pressure-outlet 9.
   208  5.7424e-02  4.2304e-03  2.6226e-03  1.4313e-16  0:00:39  792

 Reversed flow on 198 faces (21.7% area) of pressure-inlet 7.

 Reversed flow on 261 faces (32.9% area) of pressure-outlet 9.
   209  4.9393e-02  4.2018e-03  2.6182e-03  1.4345e-16  0:00:32  791

 Reversed flow on 198 faces (21.6% area) of pressure-inlet 7.

 Reversed flow on 271 faces (32.0% area) of pressure-outlet 9.

  iter  continuity  x-velocity  y-velocity      energy     time/iter
   210  4.5019e-02  4.1638e-03  2.6061e-03  1.4245e-16  0:00:25  790

 Reversed flow on 198 faces (21.3% area) of pressure-inlet 7.

 Reversed flow on 261 faces (27.1% area) of pressure-outlet 9.
   211  4.9059e-02  4.1336e-03  2.5966e-03  1.4424e-16  0:02:58  789

 Reversed flow on 197 faces (20.9% area) of pressure-inlet 7.

 Reversed flow on 293 faces (28.5% area) of pressure-outlet 9.
   212  5.4957e-02  4.1280e-03  2.5922e-03  1.4478e-16  0:02:22  788

 Reversed flow on 198 faces (21.1% area) of pressure-inlet 7.

 Reversed flow on 236 faces (23.8% area) of pressure-outlet 9.
   213  4.9047e-02  4.1355e-03  2.5821e-03  1.4667e-16  0:01:54  787

 Reversed flow on 197 faces (20.7% area) of pressure-inlet 7.

 Reversed flow on 263 faces (25.7% area) of pressure-outlet 9.
   214  4.5352e-02  4.0956e-03  2.5750e-03  1.4807e-16  0:01:31  786

 Reversed flow on 199 faces (21.4% area) of pressure-inlet 7.

 Reversed flow on 247 faces (22.8% area) of pressure-outlet 9.
   215  5.5938e-02  4.0580e-03  2.5653e-03  1.5010e-16  0:01:13  785

 Reversed flow on 198 faces (20.9% area) of pressure-inlet 7.

 Reversed flow on 268 faces (23.5% area) of pressure-outlet 9.
   216  4.7194e-02  4.0561e-03  2.5549e-03  1.4696e-16  0:00:58  784

 Reversed flow on 199 faces (21.2% area) of pressure-inlet 7.

 Reversed flow on 215 faces (20.9% area) of pressure-outlet 9.
   217  5.0523e-02  4.0717e-03  2.5423e-03  1.4537e-16  0:00:46  783

 Reversed flow on 199 faces (21.2% area) of pressure-inlet 7.

 Reversed flow on 283 faces (23.6% area) of pressure-outlet 9.
   218  4.7336e-02  4.0373e-03  2.5300e-03  1.4706e-16  0:00:37  782

 Reversed flow on 199 faces (21.1% area) of pressure-inlet 7.

 Reversed flow on 237 faces (19.9% area) of pressure-outlet 9.
   219  4.4593e-02  4.0030e-03  2.5144e-03  1.4660e-16  0:00:30  781

 Reversed flow on 197 faces (20.3% area) of pressure-inlet 7.

 Reversed flow on 233 faces (19.9% area) of pressure-outlet 9.
   220  4.6025e-02  3.9662e-03  2.5082e-03  1.4683e-16  0:03:00  780

 Reversed flow on 198 faces (20.6% area) of pressure-inlet 7.

 Reversed flow on 240 faces (19.2% area) of pressure-outlet 9.

  iter  continuity  x-velocity  y-velocity      energy     time/iter
   221  4.7280e-02  3.9619e-03  2.5036e-03  1.4788e-16  0:02:24  779

 Reversed flow on 197 faces (20.3% area) of pressure-inlet 7.

 Reversed flow on 247 faces (19.1% area) of pressure-outlet 9.
   222  4.8592e-02  3.9219e-03  2.5043e-03  1.4766e-16  0:01:55  778

 Reversed flow on 198 faces (20.5% area) of pressure-inlet 7.

 Reversed flow on 205 faces (16.8% area) of pressure-outlet 9.
   223  4.5773e-02  3.8885e-03  2.5032e-03  1.4904e-16  0:01:32  777

 Reversed flow on 199 faces (20.8% area) of pressure-inlet 7.

 Reversed flow on 252 faces (18.4% area) of pressure-outlet 9.
   224  4.6720e-02  3.8805e-03  2.5053e-03  1.4867e-16  0:01:13  776

 Reversed flow on 196 faces (19.9% area) of pressure-inlet 7.

 Reversed flow on 199 faces (15.9% area) of pressure-outlet 9.
   225  4.3977e-02  3.8947e-03  2.5104e-03  1.4827e-16  0:00:58  775

 Reversed flow on 196 faces (19.8% area) of pressure-inlet 7.

 Reversed flow on 237 faces (18.2% area) of pressure-outlet 9.
   226  4.3325e-02  3.8565e-03  2.5280e-03  1.4459e-16  0:00:47  774

 Reversed flow on 196 faces (19.8% area) of pressure-inlet 7.

 Reversed flow on 207 faces (15.6% area) of pressure-outlet 9.
   227  4.7468e-02  3.8389e-03  2.5356e-03  1.4167e-16  0:00:37  773

 Reversed flow on 197 faces (20.0% area) of pressure-inlet 7.

 Reversed flow on 237 faces (17.4% area) of pressure-outlet 9.
   228  4.5399e-02  3.8596e-03  2.5373e-03  1.4183e-16  0:00:30  772

 Reversed flow on 198 faces (20.3% area) of pressure-inlet 7.

 Reversed flow on 213 faces (15.1% area) of pressure-outlet 9.
   229  4.3476e-02  3.8285e-03  2.5452e-03  1.4158e-16  0:02:58  771

 Reversed flow on 195 faces (19.3% area) of pressure-inlet 7.

 Reversed flow on 229 faces (16.2% area) of pressure-outlet 9.
   230  4.5777e-02  3.7979e-03  2.5482e-03  1.4237e-16  0:02:22  770

 Reversed flow on 197 faces (19.9% area) of pressure-inlet 7.

 Reversed flow on 203 faces (15.3% area) of pressure-outlet 9.
   231  4.5603e-02  3.7920e-03  2.5408e-03  1.4215e-16  0:01:54  769

 Reversed flow on 196 faces (19.5% area) of pressure-inlet 7.

 Reversed flow on 217 faces (16.0% area) of pressure-outlet 9.

  iter  continuity  x-velocity  y-velocity      energy     time/iter
   232  4.5863e-02  3.7581e-03  2.5385e-03  1.4354e-16  0:01:31  768

 Reversed flow on 197 faces (19.8% area) of pressure-inlet 7.

 Reversed flow on 201 faces (15.3% area) of pressure-outlet 9.
   233  4.4665e-02  3.7613e-03  2.5212e-03  1.4212e-16  0:01:13  767

 Reversed flow on 198 faces (20.4% area) of pressure-inlet 7.

 Reversed flow on 198 faces (16.9% area) of pressure-outlet 9.
   234  4.9176e-02  3.7481e-03  2.5090e-03  1.4253e-16  0:00:58  766

 Reversed flow on 198 faces (20.4% area) of pressure-inlet 7.

 Reversed flow on 211 faces (16.4% area) of pressure-outlet 9.
   235  4.7317e-02  3.7142e-03  2.4987e-03  1.4137e-16  0:00:46  765

 Reversed flow on 200 faces (21.5% area) of pressure-inlet 7.

 Reversed flow on 228 faces (18.5% area) of pressure-outlet 9.
   236  4.9271e-02  3.7278e-03  2.4786e-03  1.4117e-16  0:00:37  764

 Reversed flow on 203 faces (22.4% area) of pressure-inlet 7.

 Reversed flow on 243 faces (28.4% area) of pressure-outlet 9.
   237  5.0499e-02  3.7188e-03  2.4763e-03  1.4209e-16  0:00:30  763

 Reversed flow on 204 faces (23.1% area) of pressure-inlet 7.

 Reversed flow on 271 faces (37.6% area) of pressure-outlet 9.
   238  5.1090e-02  3.7160e-03  2.4738e-03  1.4377e-16  0:02:56  762

 Reversed flow on 203 faces (23.1% area) of pressure-inlet 7.

 Reversed flow on 325 faces (46.4% area) of pressure-outlet 9.
   239  5.4402e-02  3.6995e-03  2.4724e-03  1.4444e-16  0:02:21  761

 Reversed flow on 202 faces (23.0% area) of pressure-inlet 7.

 Reversed flow on 353 faces (50.5% area) of pressure-outlet 9.
   240  5.0595e-02  3.7101e-03  2.4568e-03  1.4037e-16  0:01:52  760

 Reversed flow on 201 faces (23.4% area) of pressure-inlet 7.

 Reversed flow on 310 faces (49.3% area) of pressure-outlet 9.
   241  5.0356e-02  3.7012e-03  2.4447e-03  1.4234e-16  0:01:30  759

 Reversed flow on 200 faces (23.0% area) of pressure-inlet 7.

 Reversed flow on 350 faces (53.6% area) of pressure-outlet 9.
   242  4.8226e-02  3.7043e-03  2.4262e-03  1.4429e-16  0:01:12  758

 Reversed flow on 202 faces (23.4% area) of pressure-inlet 7.

 Reversed flow on 358 faces (53.0% area) of pressure-outlet 9.

  iter  continuity  x-velocity  y-velocity      energy     time/iter
   243  4.7920e-02  3.6919e-03  2.4061e-03  1.4096e-16  0:00:57  757

 Reversed flow on 208 faces (23.5% area) of pressure-inlet 7.

 Reversed flow on 355 faces (55.0% area) of pressure-outlet 9.
   244  4.7176e-02  3.6778e-03  2.3838e-03  1.4143e-16  0:00:46  756

 Reversed flow on 208 faces (23.5% area) of pressure-inlet 7.

 Reversed flow on 366 faces (56.0% area) of pressure-outlet 9.
   245  4.7853e-02  3.6580e-03  2.3662e-03  1.4181e-16  0:00:37  755

 Reversed flow on 209 faces (23.9% area) of pressure-inlet 7.

 Reversed flow on 401 faces (57.1% area) of pressure-outlet 9.
   246  4.6025e-02  3.6446e-03  2.3485e-03  1.4152e-16  0:00:29  754

 Reversed flow on 208 faces (23.5% area) of pressure-inlet 7.

 Reversed flow on 385 faces (56.4% area) of pressure-outlet 9.
   247  4.4699e-02  3.6251e-03  2.3350e-03  1.4276e-16  0:02:54  753

 Reversed flow on 209 faces (23.9% area) of pressure-inlet 7.

 Reversed flow on 357 faces (56.6% area) of pressure-outlet 9.
   248  4.5718e-02  3.5799e-03  2.3174e-03  1.4384e-16  0:02:19  752

 Reversed flow on 209 faces (23.9% area) of pressure-inlet 7.

 Reversed flow on 366 faces (57.2% area) of pressure-outlet 9.
   249  4.5763e-02  3.5547e-03  2.3016e-03  1.4633e-16  0:01:51  751

 Reversed flow on 209 faces (23.9% area) of pressure-inlet 7.

 Reversed flow on 393 faces (58.3% area) of pressure-outlet 9.
   250  4.4797e-02  3.5226e-03  2.2855e-03  1.4466e-16  0:01:29  750

 Reversed flow on 208 faces (23.5% area) of pressure-inlet 7.

 Reversed flow on 390 faces (59.1% area) of pressure-outlet 9.
   251  4.2828e-02  3.4951e-03  2.2817e-03  1.4363e-16  0:01:11  749

 Reversed flow on 208 faces (23.5% area) of pressure-inlet 7.

 Reversed flow on 376 faces (58.5% area) of pressure-outlet 9.
   252  4.3722e-02  3.4522e-03  2.2799e-03  1.4411e-16  0:00:57  748

 Reversed flow on 209 faces (23.9% area) of pressure-inlet 7.

 Reversed flow on 370 faces (58.6% area) of pressure-outlet 9.
   253  4.3199e-02  3.4274e-03  2.2711e-03  1.4381e-16  0:00:45  747

 Reversed flow on 208 faces (23.5% area) of pressure-inlet 7.

 Reversed flow on 398 faces (61.0% area) of pressure-outlet 9.

  iter  continuity  x-velocity  y-velocity      energy     time/iter
   254  4.2216e-02  3.4085e-03  2.2606e-03  1.4444e-16  0:00:36  746

 Reversed flow on 209 faces (23.9% area) of pressure-inlet 7.

 Reversed flow on 377 faces (59.0% area) of pressure-outlet 9.
   255  4.2747e-02  3.3979e-03  2.2517e-03  1.4658e-16  0:00:29  745

 Reversed flow on 210 faces (24.3% area) of pressure-inlet 7.

 Reversed flow on 370 faces (58.9% area) of pressure-outlet 9.
   256  4.0621e-02  3.4121e-03  2.2453e-03  1.4629e-16  0:02:52  744

 Reversed flow on 210 faces (24.3% area) of pressure-inlet 7.

 Reversed flow on 389 faces (60.9% area) of pressure-outlet 9.
   257  4.2868e-02  3.4142e-03  2.2497e-03  1.4562e-16  0:02:17  743

 Reversed flow on 209 faces (23.9% area) of pressure-inlet 7.

 Reversed flow on 383 faces (60.6% area) of pressure-outlet 9.
   258  4.2478e-02  3.3984e-03  2.2597e-03  1.4562e-16  0:01:50  742

 Reversed flow on 210 faces (24.3% area) of pressure-inlet 7.

 Reversed flow on 380 faces (61.1% area) of pressure-outlet 9.
   259  4.4294e-02  3.3830e-03  2.2647e-03  1.4455e-16  0:01:28  741

 Reversed flow on 207 faces (23.8% area) of pressure-inlet 7.

 Reversed flow on 373 faces (61.1% area) of pressure-outlet 9.
   260  4.3823e-02  3.3954e-03  2.2668e-03  1.4492e-16  0:01:10  740

 Reversed flow on 203 faces (23.2% area) of pressure-inlet 7.

 Reversed flow on 371 faces (59.7% area) of pressure-outlet 9.
   261  4.3520e-02  3.4179e-03  2.2738e-03  1.4491e-16  0:00:56  739

 Reversed flow on 199 faces (22.6% area) of pressure-inlet 7.

 Reversed flow on 359 faces (59.4% area) of pressure-outlet 9.
   262  4.4076e-02  3.4245e-03  2.2831e-03  1.4482e-16  0:00:45  738

 Reversed flow on 197 faces (22.4% area) of pressure-inlet 7.

 Reversed flow on 377 faces (61.3% area) of pressure-outlet 9.
   263  4.7308e-02  3.4417e-03  2.2892e-03  1.4512e-16  0:00:36  737

 Reversed flow on 196 faces (22.5% area) of pressure-inlet 7.

 Reversed flow on 353 faces (58.7% area) of pressure-outlet 9.
   264  4.5915e-02  3.4719e-03  2.2874e-03  1.4419e-16  0:00:29  736

 Reversed flow on 192 faces (21.8% area) of pressure-inlet 7.

 Reversed flow on 364 faces (59.0% area) of pressure-outlet 9.

  iter  continuity  x-velocity  y-velocity      energy     time/iter
   265  4.9476e-02  3.5102e-03  2.2814e-03  1.4486e-16  0:02:50  735

 Reversed flow on 192 faces (22.1% area) of pressure-inlet 7.

 Reversed flow on 336 faces (57.5% area) of pressure-outlet 9.
   266  5.5184e-02  3.5656e-03  2.2822e-03  1.4659e-16  0:02:16  734

 Reversed flow on 187 faces (21.4% area) of pressure-inlet 7.

 Reversed flow on 370 faces (58.6% area) of pressure-outlet 9.
   267  5.9546e-02  3.6008e-03  2.2856e-03  1.4484e-16  0:01:48  733

 Reversed flow on 185 faces (21.4% area) of pressure-inlet 7.

 Reversed flow on 359 faces (58.6% area) of pressure-outlet 9.
   268  5.5301e-02  3.6320e-03  2.2928e-03  1.4436e-16  0:01:27  732

 Reversed flow on 181 faces (20.7% area) of pressure-inlet 7.

 Reversed flow on 369 faces (57.6% area) of pressure-outlet 9.
   269  5.0216e-02  3.6175e-03  2.2999e-03  1.4480e-16  0:01:09  731

 Reversed flow on 176 faces (20.0% area) of pressure-inlet 7.

 Reversed flow on 365 faces (57.9% area) of pressure-outlet 9.
   270  4.7950e-02  3.6024e-03  2.3034e-03  1.4504e-16  0:00:55  730

 Reversed flow on 174 faces (20.3% area) of pressure-inlet 7.

 Reversed flow on 373 faces (59.2% area) of pressure-outlet 9.
   271  4.7327e-02  3.5731e-03  2.3065e-03  1.4354e-16  0:00:44  729

 Reversed flow on 169 faces (19.5% area) of pressure-inlet 7.

 Reversed flow on 371 faces (58.5% area) of pressure-outlet 9.
   272  4.8522e-02  3.5512e-03  2.3045e-03  1.4292e-16  0:00:35  728

 Reversed flow on 163 faces (18.6% area) of pressure-inlet 7.

 Reversed flow on 354 faces (58.1% area) of pressure-outlet 9.
   273  4.5455e-02  3.5424e-03  2.3019e-03  1.4527e-16  0:00:28  727

 Reversed flow on 159 faces (18.5% area) of pressure-inlet 7.

 Reversed flow on 341 faces (56.3% area) of pressure-outlet 9.
   274  4.1877e-02  3.5213e-03  2.3008e-03  1.4655e-16  0:02:48  726

 Reversed flow on 151 faces (17.2% area) of pressure-inlet 7.

 Reversed flow on 369 faces (58.8% area) of pressure-outlet 9.
   275  3.8276e-02  3.4984e-03  2.3063e-03  1.4614e-16  0:02:14  725

 Reversed flow on 147 faces (17.0% area) of pressure-inlet 7.

 Reversed flow on 339 faces (56.8% area) of pressure-outlet 9.

  iter  continuity  x-velocity  y-velocity      energy     time/iter
   276  3.5563e-02  3.4813e-03  2.3117e-03  1.4585e-16  0:01:47  724

 Reversed flow on 140 faces (16.5% area) of pressure-inlet 7.

 Reversed flow on 326 faces (55.7% area) of pressure-outlet 9.
   277  3.3865e-02  3.4712e-03  2.3047e-03  1.4621e-16  0:01:26  723

 Reversed flow on 133 faces (15.8% area) of pressure-inlet 7.

 Reversed flow on 346 faces (56.8% area) of pressure-outlet 9.
   278  3.4145e-02  3.4655e-03  2.2996e-03  1.4586e-16  0:01:08  722

 Reversed flow on 105 faces (14.2% area) of pressure-inlet 7.

 Reversed flow on 315 faces (54.5% area) of pressure-outlet 9.
   279  3.4548e-02  3.4465e-03  2.2934e-03  1.4623e-16  0:00:55  721

 Reversed flow on 69 faces (12.8% area) of pressure-inlet 7.

 Reversed flow on 317 faces (54.5% area) of pressure-outlet 9.
   280  3.8398e-02  3.4357e-03  2.2958e-03  1.4592e-16  0:00:44  720

 Reversed flow on 59 faces (12.7% area) of pressure-inlet 7.

 Reversed flow on 303 faces (54.4% area) of pressure-outlet 9.
   281  3.7029e-02  3.4179e-03  2.2992e-03  1.4541e-16  0:00:35  719

 Reversed flow on 53 faces (12.3% area) of pressure-inlet 7.

 Reversed flow on 299 faces (52.8% area) of pressure-outlet 9.
   282  3.4825e-02  3.4012e-03  2.2955e-03  1.4416e-16  0:00:28  718

 Reversed flow on 50 faces (12.2% area) of pressure-inlet 7.

 Reversed flow on 297 faces (51.1% area) of pressure-outlet 9.
   283  3.4001e-02  3.3921e-03  2.2909e-03  1.4415e-16  0:00:22  717

 Reversed flow on 43 faces (12.3% area) of pressure-inlet 7.

 Reversed flow on 277 faces (51.1% area) of pressure-outlet 9.
   284  3.6558e-02  3.3766e-03  2.2932e-03  1.4520e-16  0:02:41  716

 Reversed flow on 38 faces (11.9% area) of pressure-inlet 7.

 Reversed flow on 280 faces (44.9% area) of pressure-outlet 9.
   285  3.3740e-02  3.3655e-03  2.2879e-03  1.4429e-16  0:02:09  715

 Reversed flow on 34 faces (12.3% area) of pressure-inlet 7.

 Reversed flow on 264 faces (42.7% area) of pressure-outlet 9.
   286  3.2283e-02  3.3499e-03  2.2818e-03  1.4521e-16  0:01:43  714

 Reversed flow on 32 faces (12.8% area) of pressure-inlet 7.

 Reversed flow on 237 faces (38.8% area) of pressure-outlet 9.

  iter  continuity  x-velocity  y-velocity      energy     time/iter
   287  3.4686e-02  3.3416e-03  2.2731e-03  1.4697e-16  0:01:22  713

 Reversed flow on 30 faces (12.1% area) of pressure-inlet 7.

 Reversed flow on 262 faces (39.6% area) of pressure-outlet 9.
   288  3.7907e-02  3.3316e-03  2.2609e-03  1.4624e-16  0:01:06  712

 Reversed flow on 31 faces (12.7% area) of pressure-inlet 7.

 Reversed flow on 234 faces (33.9% area) of pressure-outlet 9.
   289  3.3613e-02  3.3188e-03  2.2466e-03  1.4417e-16  0:00:52  711

 Reversed flow on 31 faces (12.7% area) of pressure-inlet 7.

 Reversed flow on 228 faces (34.3% area) of pressure-outlet 9.
   290  3.5317e-02  3.3094e-03  2.2240e-03  1.4413e-16  0:00:42  710

 Reversed flow on 29 faces (12.0% area) of pressure-inlet 7.

 Reversed flow on 228 faces (28.3% area) of pressure-outlet 9.
   291  3.6851e-02  3.2900e-03  2.2055e-03  1.4450e-16  0:00:33  709

 Reversed flow on 30 faces (12.7% area) of pressure-inlet 7.

 Reversed flow on 187 faces (23.5% area) of pressure-outlet 9.
   292  3.8419e-02  3.2746e-03  2.1924e-03  1.4403e-16  0:02:48  708

 Reversed flow on 30 faces (12.7% area) of pressure-inlet 7.

 Reversed flow on 176 faces (18.6% area) of pressure-outlet 9.
   293  3.8928e-02  3.2625e-03  2.1747e-03  1.4398e-16  0:02:14  707

 Reversed flow on 30 faces (12.9% area) of pressure-inlet 7.

 Reversed flow on 196 faces (16.4% area) of pressure-outlet 9.
   294  3.6536e-02  3.2397e-03  2.1527e-03  1.4322e-16  0:01:47  706

 Reversed flow on 29 faces (12.6% area) of pressure-inlet 7.

 Reversed flow on 143 faces (13.0% area) of pressure-outlet 9.
   295  3.4272e-02  3.2173e-03  2.1419e-03  1.4353e-16  0:01:26  705

 Reversed flow on 30 faces (13.3% area) of pressure-inlet 7.

 Reversed flow on 191 faces (13.7% area) of pressure-outlet 9.
   296  3.4825e-02  3.2167e-03  2.1341e-03  1.4445e-16  0:01:09  704

 Reversed flow on 31 faces (13.9% area) of pressure-inlet 7.

 Reversed flow on 174 faces (12.6% area) of pressure-outlet 9.
   297  3.4423e-02  3.2263e-03  2.1245e-03  1.4322e-16  0:00:55  703

 Reversed flow on 30 faces (13.5% area) of pressure-inlet 7.

 Reversed flow on 115 faces (8.7% area) of pressure-outlet 9.

  iter  continuity  x-velocity  y-velocity      energy     time/iter
   298  3.2689e-02  3.2008e-03  2.1141e-03  1.4410e-16  0:00:44  702

 Reversed flow on 30 faces (13.7% area) of pressure-inlet 7.

 Reversed flow on 139 faces (7.7% area) of pressure-outlet 9.
   299  3.2664e-02  3.1734e-03  2.1045e-03  1.4342e-16  0:00:35  701

 Reversed flow on 30 faces (13.9% area) of pressure-inlet 7.

 Reversed flow on 151 faces (9.0% area) of pressure-outlet 9.
   300  3.2413e-02  3.1594e-03  2.1039e-03  1.4574e-16  0:00:28  700

 Reversed flow on 31 faces (14.5% area) of pressure-inlet 7.

 Reversed flow on 138 faces (8.0% area) of pressure-outlet 9.
   301  3.1896e-02  3.1481e-03  2.1094e-03  1.4541e-16  0:02:42  699

 Reversed flow on 31 faces (14.8% area) of pressure-inlet 7.

 Reversed flow on 153 faces (9.1% area) of pressure-outlet 9.
   302  3.3176e-02  3.1378e-03  2.1165e-03  1.4659e-16  0:02:09  698

 Reversed flow on 30 faces (14.4% area) of pressure-inlet 7.

 Reversed flow on 156 faces (8.0% area) of pressure-outlet 9.
   303  3.1275e-02  3.1371e-03  2.1200e-03  1.4636e-16  0:01:43  697

 Reversed flow on 30 faces (14.6% area) of pressure-inlet 7.

 Reversed flow on 120 faces (6.1% area) of pressure-outlet 9.
   304  2.9382e-02  3.1390e-03  2.1245e-03  1.4490e-16  0:01:23  696

 Reversed flow on 29 faces (14.2% area) of pressure-inlet 7.

 Reversed flow on 171 faces (7.9% area) of pressure-outlet 9.
   305  2.9645e-02  3.1228e-03  2.1275e-03  1.4462e-16  0:01:06  695

 Reversed flow on 29 faces (14.4% area) of pressure-inlet 7.

 Reversed flow on 110 faces (5.6% area) of pressure-outlet 9.
   306  3.0685e-02  3.1178e-03  2.1289e-03  1.4529e-16  0:00:53  694

 Reversed flow on 30 faces (15.1% area) of pressure-inlet 7.

 Reversed flow on 137 faces (5.7% area) of pressure-outlet 9.
   307  2.9832e-02  3.1222e-03  2.1307e-03  1.4436e-16  0:00:42  693

 Reversed flow on 29 faces (14.7% area) of pressure-inlet 7.

 Reversed flow on 97 faces (5.2% area) of pressure-outlet 9.
   308  3.0750e-02  3.1122e-03  2.1280e-03  1.4556e-16  0:00:34  692

 Reversed flow on 28 faces (14.3% area) of pressure-inlet 7.

 Reversed flow on 99 faces (4.3% area) of pressure-outlet 9.

  iter  continuity  x-velocity  y-velocity      energy     time/iter
   309  3.1867e-02  3.0943e-03  2.1272e-03  1.4568e-16  0:00:27  691

 Reversed flow on 29 faces (14.9% area) of pressure-inlet 7.

 Reversed flow on 70 faces (2.7% area) of pressure-outlet 9.
   310  3.0352e-02  3.0890e-03  2.1261e-03  1.4885e-16  0:02:39  690

 Reversed flow on 28 faces (14.5% area) of pressure-inlet 7.

 Reversed flow on 108 faces (5.4% area) of pressure-outlet 9.
   311  2.8592e-02  3.0848e-03  2.1216e-03  1.4624e-16  0:02:07  689

 Reversed flow on 29 faces (15.4% area) of pressure-inlet 7.

 Reversed flow on 101 faces (4.5% area) of pressure-outlet 9.
   312  2.9106e-02  3.0757e-03  2.1217e-03  1.4366e-16  0:01:42  688

 Reversed flow on 28 faces (14.9% area) of pressure-inlet 7.

 Reversed flow on 84 faces (3.9% area) of pressure-outlet 9.
   313  2.9012e-02  3.0758e-03  2.1160e-03  1.4296e-16  0:01:21  687

 Reversed flow on 29 faces (15.6% area) of pressure-inlet 7.

 Reversed flow on 108 faces (4.9% area) of pressure-outlet 9.
   314  2.9943e-02  3.0667e-03  2.1129e-03  1.4419e-16  0:01:05  686

 Reversed flow on 28 faces (15.2% area) of pressure-inlet 7.

 Reversed flow on 64 faces (3.3% area) of pressure-outlet 9.
   315  3.1618e-02  3.0748e-03  2.1057e-03  1.4421e-16  0:00:52  685

 Reversed flow on 28 faces (15.4% area) of pressure-inlet 7.

 Reversed flow on 123 faces (4.8% area) of pressure-outlet 9.
   316  3.1075e-02  3.0897e-03  2.0974e-03  1.4493e-16  0:00:41  684

 Reversed flow on 28 faces (15.4% area) of pressure-inlet 7.

 Reversed flow on 56 faces (3.1% area) of pressure-outlet 9.
   317  3.0307e-02  3.0933e-03  2.0881e-03  1.4569e-16  0:00:33  683

 Reversed flow on 27 faces (15.0% area) of pressure-inlet 7.

 Reversed flow on 111 faces (4.3% area) of pressure-outlet 9.
   318  3.0162e-02  3.1028e-03  2.0770e-03  1.4406e-16  0:00:26  682

 Reversed flow on 28 faces (15.6% area) of pressure-inlet 7.

 Reversed flow on 68 faces (4.1% area) of pressure-outlet 9.
   319  3.1183e-02  3.1145e-03  2.0680e-03  1.4494e-16  0:02:37  681

 Reversed flow on 27 faces (15.2% area) of pressure-inlet 7.

 Reversed flow on 141 faces (10.2% area) of pressure-outlet 9.

  iter  continuity  x-velocity  y-velocity      energy     time/iter
   320  3.1408e-02  3.1176e-03  2.0625e-03  1.4644e-16  0:02:06  680

 Reversed flow on 26 faces (14.8% area) of pressure-inlet 7.

 Reversed flow on 100 faces (10.5% area) of pressure-outlet 9.
   321  3.1566e-02  3.1237e-03  2.0549e-03  1.4609e-16  0:01:40  679

 Reversed flow on 25 faces (14.1% area) of pressure-inlet 7.

 Reversed flow on 146 faces (13.8% area) of pressure-outlet 9.
   322  3.1834e-02  3.1182e-03  2.0477e-03  1.4625e-16  0:01:20  678

 Reversed flow on 24 faces (13.7% area) of pressure-inlet 7.

 Reversed flow on 101 faces (16.5% area) of pressure-outlet 9.
   323  3.4635e-02  3.1251e-03  2.0418e-03  1.4599e-16  0:01:04  677

 Reversed flow on 23 faces (13.0% area) of pressure-inlet 7.

 Reversed flow on 156 faces (19.6% area) of pressure-outlet 9.
   324  3.5365e-02  3.1263e-03  2.0367e-03  1.4468e-16  0:00:51  676

 Reversed flow on 23 faces (13.0% area) of pressure-inlet 7.

 Reversed flow on 112 faces (20.1% area) of pressure-outlet 9.
   325  3.4314e-02  3.1126e-03  2.0346e-03  1.4470e-16  0:00:41  675

 Reversed flow on 23 faces (13.3% area) of pressure-inlet 7.

 Reversed flow on 167 faces (23.6% area) of pressure-outlet 9.
   326  3.8553e-02  3.1105e-03  2.0350e-03  1.4532e-16  0:00:33  674

 Reversed flow on 24 faces (13.4% area) of pressure-inlet 7.

 Reversed flow on 140 faces (22.8% area) of pressure-outlet 9.
   327  3.6308e-02  3.1125e-03  2.0314e-03  1.4531e-16  0:00:26  673

 Reversed flow on 24 faces (13.0% area) of pressure-inlet 7.

 Reversed flow on 178 faces (24.2% area) of pressure-outlet 9.
   328  3.4849e-02  3.0988e-03  2.0308e-03  1.4388e-16  0:02:35  672

 Reversed flow on 29 faces (15.9% area) of pressure-inlet 7.

 Reversed flow on 149 faces (23.8% area) of pressure-outlet 9.
   329  3.4530e-02  3.0961e-03  2.0344e-03  1.4350e-16  0:02:04  671

 Reversed flow on 33 faces (18.1% area) of pressure-inlet 7.

 Reversed flow on 166 faces (27.0% area) of pressure-outlet 9.
   330  3.3876e-02  3.1134e-03  2.0374e-03  1.4285e-16  0:01:39  670

 Reversed flow on 30 faces (16.1% area) of pressure-inlet 7.

 Reversed flow on 169 faces (25.4% area) of pressure-outlet 9.

  iter  continuity  x-velocity  y-velocity      energy     time/iter
   331  3.1282e-02  3.1096e-03  2.0356e-03  1.4633e-16  0:01:19  669

 Reversed flow on 31 faces (16.4% area) of pressure-inlet 7.

 Reversed flow on 157 faces (25.0% area) of pressure-outlet 9.
   332  3.2151e-02  3.1055e-03  2.0323e-03  1.4631e-16  0:01:03  668

 Reversed flow on 33 faces (17.8% area) of pressure-inlet 7.

 Reversed flow on 185 faces (26.2% area) of pressure-outlet 9.
   333  3.1039e-02  3.0994e-03  2.0259e-03  1.4712e-16  0:00:50  667

 Reversed flow on 34 faces (18.3% area) of pressure-inlet 7.

 Reversed flow on 165 faces (25.3% area) of pressure-outlet 9.
   334  3.3491e-02  3.0776e-03  2.0237e-03  1.4628e-16  0:00:40  666

 Reversed flow on 36 faces (19.6% area) of pressure-inlet 7.

 Reversed flow on 183 faces (27.9% area) of pressure-outlet 9.
   335  3.2500e-02  3.0692e-03  2.0221e-03  1.4593e-16  0:00:32  665

 Reversed flow on 35 faces (18.7% area) of pressure-inlet 7.

 Reversed flow on 192 faces (28.8% area) of pressure-outlet 9.
   336  3.9415e-02  3.0618e-03  2.0188e-03  1.4439e-16  0:00:26  664

 Reversed flow on 36 faces (19.4% area) of pressure-inlet 7.

 Reversed flow on 199 faces (28.5% area) of pressure-outlet 9.
   337  3.7116e-02  3.0428e-03  2.0115e-03  1.4226e-16  0:02:33  663

 Reversed flow on 37 faces (19.8% area) of pressure-inlet 7.

 Reversed flow on 194 faces (30.3% area) of pressure-outlet 9.
   338  3.7700e-02  3.0351e-03  2.0081e-03  1.4251e-16  0:02:02  662

 Reversed flow on 38 faces (20.2% area) of pressure-inlet 7.

 Reversed flow on 218 faces (32.6% area) of pressure-outlet 9.
   339  3.5678e-02  3.0192e-03  2.0133e-03  1.4248e-16  0:01:38  661

 Reversed flow on 38 faces (20.3% area) of pressure-inlet 7.

 Reversed flow on 211 faces (35.1% area) of pressure-outlet 9.
   340  3.3566e-02  3.0118e-03  2.0198e-03  1.4215e-16  0:01:18  660

 Reversed flow on 37 faces (19.2% area) of pressure-inlet 7.

 Reversed flow on 221 faces (38.5% area) of pressure-outlet 9.
   341  3.6446e-02  2.9889e-03  2.0213e-03  1.4357e-16  0:01:02  659

 Reversed flow on 38 faces (19.5% area) of pressure-inlet 7.

 Reversed flow on 307 faces (46.1% area) of pressure-outlet 9.

  iter  continuity  x-velocity  y-velocity      energy     time/iter
   342  3.5448e-02  2.9675e-03  2.0218e-03  1.4399e-16  0:00:50  658

 Reversed flow on 36 faces (18.2% area) of pressure-inlet 7.

 Reversed flow on 291 faces (46.5% area) of pressure-outlet 9.
   343  3.4163e-02  2.9768e-03  2.0195e-03  1.4388e-16  0:00:40  657

 Reversed flow on 39 faces (19.9% area) of pressure-inlet 7.

 Reversed flow on 308 faces (48.4% area) of pressure-outlet 9.
   344  3.4174e-02  2.9607e-03  2.0121e-03  1.4261e-16  0:00:32  656

 Reversed flow on 39 faces (19.6% area) of pressure-inlet 7.

 Reversed flow on 280 faces (47.4% area) of pressure-outlet 9.
   345  3.1573e-02  2.9348e-03  2.0012e-03  1.4289e-16  0:00:25  655

 Reversed flow on 40 faces (20.0% area) of pressure-inlet 7.

 Reversed flow on 315 faces (49.4% area) of pressure-outlet 9.
   346  3.0882e-02  2.9252e-03  1.9937e-03  1.4314e-16  0:02:31  654

 Reversed flow on 40 faces (19.7% area) of pressure-inlet 7.

 Reversed flow on 322 faces (49.0% area) of pressure-outlet 9.
   347  3.4164e-02  2.9256e-03  1.9909e-03  1.4291e-16  0:02:01  653

 Reversed flow on 40 faces (19.3% area) of pressure-inlet 7.

 Reversed flow on 302 faces (49.5% area) of pressure-outlet 9.
   348  3.0392e-02  2.9105e-03  1.9857e-03  1.4412e-16  0:01:36  652

 Reversed flow on 42 faces (20.3% area) of pressure-inlet 7.

 Reversed flow on 302 faces (49.6% area) of pressure-outlet 9.
   349  2.8423e-02  2.8979e-03  1.9846e-03  1.4235e-16  0:01:17  651

 Reversed flow on 43 faces (20.7% area) of pressure-inlet 7.

 Reversed flow on 333 faces (51.7% area) of pressure-outlet 9.
   350  3.2291e-02  2.8886e-03  1.9851e-03  1.4184e-16  0:01:02  650

 Reversed flow on 44 faces (20.7% area) of pressure-inlet 7.

 Reversed flow on 330 faces (52.3% area) of pressure-outlet 9.
   351  2.8296e-02  2.8988e-03  1.9914e-03  1.4160e-16  0:00:49  649

 Reversed flow on 44 faces (20.4% area) of pressure-inlet 7.

 Reversed flow on 332 faces (53.1% area) of pressure-outlet 9.
   352  2.7371e-02  2.8902e-03  1.9984e-03  1.4239e-16  0:00:39  648

 Reversed flow on 44 faces (20.1% area) of pressure-inlet 7.

 Reversed flow on 342 faces (53.4% area) of pressure-outlet 9.

  iter  continuity  x-velocity  y-velocity      energy     time/iter
   353  2.8606e-02  2.8741e-03  2.0007e-03  1.4272e-16  0:00:31  647

 Reversed flow on 48 faces (22.0% area) of pressure-inlet 7.

 Reversed flow on 335 faces (52.9% area) of pressure-outlet 9.
   354  3.0821e-02  2.8825e-03  2.0015e-03  1.4379e-16  0:00:25  646

 Reversed flow on 46 faces (20.0% area) of pressure-inlet 7.

 Reversed flow on 313 faces (52.7% area) of pressure-outlet 9.
   355  2.9142e-02  2.9003e-03  2.0131e-03  1.4329e-16  0:02:29  645

 Reversed flow on 48 faces (20.9% area) of pressure-inlet 7.

 Reversed flow on 353 faces (55.3% area) of pressure-outlet 9.
   356  3.0197e-02  2.8898e-03  2.0169e-03  1.4403e-16  0:01:59  644

 Reversed flow on 49 faces (20.9% area) of pressure-inlet 7.

 Reversed flow on 354 faces (55.1% area) of pressure-outlet 9.
   357  2.9952e-02  2.9062e-03  2.0136e-03  1.4366e-16  0:01:35  643

 Reversed flow on 50 faces (20.9% area) of pressure-inlet 7.

 Reversed flow on 327 faces (53.7% area) of pressure-outlet 9.
   358  3.1728e-02  2.9121e-03  2.0086e-03  1.4405e-16  0:01:16  642

 Reversed flow on 51 faces (20.8% area) of pressure-inlet 7.

 Reversed flow on 342 faces (55.7% area) of pressure-outlet 9.
   359  3.2582e-02  2.9233e-03  2.0077e-03  1.4401e-16  0:01:01  641

 Reversed flow on 52 faces (20.8% area) of pressure-inlet 7.

 Reversed flow on 350 faces (56.3% area) of pressure-outlet 9.
   360  3.1962e-02  2.9448e-03  1.9955e-03  1.4525e-16  0:00:48  640

 Reversed flow on 53 faces (20.7% area) of pressure-inlet 7.

 Reversed flow on 350 faces (56.2% area) of pressure-outlet 9.
   361  3.4355e-02  2.9464e-03  1.9812e-03  1.4549e-16  0:00:39  639

 Reversed flow on 55 faces (21.2% area) of pressure-inlet 7.

 Reversed flow on 362 faces (57.9% area) of pressure-outlet 9.
   362  3.3821e-02  2.9655e-03  1.9667e-03  1.4619e-16  0:00:31  638

 Reversed flow on 57 faces (21.4% area) of pressure-inlet 7.

 Reversed flow on 366 faces (57.1% area) of pressure-outlet 9.
   363  3.5989e-02  2.9802e-03  1.9561e-03  1.4386e-16  0:00:25  637

 Reversed flow on 58 faces (21.3% area) of pressure-inlet 7.

 Reversed flow on 350 faces (57.1% area) of pressure-outlet 9.

  iter  continuity  x-velocity  y-velocity      energy     time/iter
   364  3.4052e-02  2.9848e-03  1.9427e-03  1.4422e-16  0:02:27  636

 Reversed flow on 61 faces (21.9% area) of pressure-inlet 7.

 Reversed flow on 327 faces (56.9% area) of pressure-outlet 9.
   365  3.3740e-02  2.9876e-03  1.9300e-03  1.4487e-16  0:01:57  635

 Reversed flow on 62 faces (21.8% area) of pressure-inlet 7.

 Reversed flow on 362 faces (58.7% area) of pressure-outlet 9.
   366  3.1701e-02  2.9981e-03  1.9229e-03  1.4502e-16  0:01:34  634

 Reversed flow on 64 faces (21.9% area) of pressure-inlet 7.

 Reversed flow on 338 faces (57.4% area) of pressure-outlet 9.
   367  3.6045e-02  2.9860e-03  1.9138e-03  1.4536e-16  0:01:15  633

 Reversed flow on 67 faces (22.5% area) of pressure-inlet 7.

 Reversed flow on 332 faces (58.0% area) of pressure-outlet 9.
   368  3.4450e-02  2.9959e-03  1.9045e-03  1.4512e-16  0:01:00  632

 Reversed flow on 68 faces (22.0% area) of pressure-inlet 7.

 Reversed flow on 356 faces (59.5% area) of pressure-outlet 9.
   369  3.3083e-02  3.0044e-03  1.8971e-03  1.4438e-16  0:00:48  631

 Reversed flow on 71 faces (22.5% area) of pressure-inlet 7.

 Reversed flow on 338 faces (58.7% area) of pressure-outlet 9.
   370  3.4493e-02  2.9988e-03  1.8871e-03  1.4475e-16  0:00:38  630

 Reversed flow on 70 faces (21.1% area) of pressure-inlet 7.

 Reversed flow on 347 faces (60.2% area) of pressure-outlet 9.
   371  3.3910e-02  3.0043e-03  1.8743e-03  1.4539e-16  0:00:30  629

 Reversed flow on 63 faces (17.4% area) of pressure-inlet 7.

 Reversed flow on 337 faces (60.7% area) of pressure-outlet 9.
   372  3.5788e-02  3.0140e-03  1.8621e-03  1.4591e-16  0:00:24  628

 Reversed flow on 60 faces (15.0% area) of pressure-inlet 7.

 Reversed flow on 343 faces (60.5% area) of pressure-outlet 9.
   373  3.2117e-02  3.0257e-03  1.8514e-03  1.4566e-16  0:00:19  627

 Reversed flow on 61 faces (14.7% area) of pressure-inlet 7.

 Reversed flow on 345 faces (60.7% area) of pressure-outlet 9.
   374  3.4584e-02  3.0266e-03  1.8407e-03  1.4664e-16  0:02:21  626

[...]

 Reversed flow on 151 faces (9.2% area) of pressure-inlet 7.

 Reversed flow on 270 faces (15.5% area) of pressure-outlet 9.

  iter  continuity  x-velocity  y-velocity      energy     time/iter
   936  2.7084e-02  3.6177e-03  1.8518e-03  1.4324e-16  0:00:08   64

 Reversed flow on 150 faces (9.1% area) of pressure-inlet 7.

 Reversed flow on 271 faces (16.3% area) of pressure-outlet 9.
   937  2.5676e-02  3.5966e-03  1.8367e-03  1.4375e-16  0:00:06   63

 Reversed flow on 150 faces (9.0% area) of pressure-inlet 7.

 Reversed flow on 276 faces (17.6% area) of pressure-outlet 9.
   938  2.5849e-02  3.5746e-03  1.8219e-03  1.4432e-16  0:00:05   62

 Reversed flow on 153 faces (9.5% area) of pressure-inlet 7.

 Reversed flow on 275 faces (18.3% area) of pressure-outlet 9.
   939  2.6341e-02  3.5647e-03  1.8106e-03  1.4332e-16  0:00:04   61

 Reversed flow on 154 faces (9.7% area) of pressure-inlet 7.

 Reversed flow on 297 faces (21.0% area) of pressure-outlet 9.
   940  2.4361e-02  3.5464e-03  1.8040e-03  1.4232e-16  0:00:03   60

 Reversed flow on 153 faces (9.6% area) of pressure-inlet 7.

 Reversed flow on 288 faces (22.2% area) of pressure-outlet 9.
   941  2.4488e-02  3.5340e-03  1.7978e-03  1.4530e-16  0:00:02   59

 Reversed flow on 153 faces (9.5% area) of pressure-inlet 7.

 Reversed flow on 299 faces (24.6% area) of pressure-outlet 9.
   942  2.4680e-02  3.5325e-03  1.7906e-03  1.4556e-16  0:00:02   58

 Reversed flow on 153 faces (9.5% area) of pressure-inlet 7.

 Reversed flow on 309 faces (25.9% area) of pressure-outlet 9.
   943  2.4102e-02  3.5265e-03  1.7842e-03  1.4443e-16  0:00:13   57

 Reversed flow on 153 faces (9.5% area) of pressure-inlet 7.

 Reversed flow on 269 faces (26.9% area) of pressure-outlet 9.
   944  2.2089e-02  3.5118e-03  1.7810e-03  1.4471e-16  0:00:10   56

 Reversed flow on 153 faces (9.5% area) of pressure-inlet 7.

 Reversed flow on 298 faces (29.8% area) of pressure-outlet 9.
   945  2.3487e-02  3.5167e-03  1.7742e-03  1.4339e-16  0:00:08   55

 Reversed flow on 154 faces (9.7% area) of pressure-inlet 7.

 Reversed flow on 311 faces (31.9% area) of pressure-outlet 9.
   946  2.4217e-02  3.5141e-03  1.7719e-03  1.4418e-16  0:00:06   54

 Reversed flow on 153 faces (9.5% area) of pressure-inlet 7.

 Reversed flow on 246 faces (31.7% area) of pressure-outlet 9.

  iter  continuity  x-velocity  y-velocity      energy     time/iter
   947  2.5893e-02  3.5083e-03  1.7720e-03  1.4228e-16  0:00:05   53

 Reversed flow on 156 faces (10.0% area) of pressure-inlet 7.

 Reversed flow on 259 faces (32.2% area) of pressure-outlet 9.
   948  2.4504e-02  3.5322e-03  1.7644e-03  1.4253e-16  0:00:04   52

 Reversed flow on 153 faces (9.6% area) of pressure-inlet 7.

 Reversed flow on 295 faces (37.7% area) of pressure-outlet 9.
   949  2.3354e-02  3.5405e-03  1.7592e-03  1.4283e-16  0:00:03   51

 Reversed flow on 152 faces (9.4% area) of pressure-inlet 7.

 Reversed flow on 269 faces (37.4% area) of pressure-outlet 9.
   950  2.3096e-02  3.5423e-03  1.7575e-03  1.4170e-16  0:00:02   50

 Reversed flow on 151 faces (9.2% area) of pressure-inlet 7.

 Reversed flow on 286 faces (38.4% area) of pressure-outlet 9.
   951  2.2982e-02  3.5613e-03  1.7522e-03  1.4053e-16  0:00:02   49

 Reversed flow on 153 faces (9.5% area) of pressure-inlet 7.

 Reversed flow on 286 faces (41.8% area) of pressure-outlet 9.
   952  2.2900e-02  3.5682e-03  1.7554e-03  1.4063e-16  0:00:11   48

 Reversed flow on 156 faces (10.0% area) of pressure-inlet 7.

 Reversed flow on 265 faces (40.1% area) of pressure-outlet 9.
   953  2.2602e-02  3.5633e-03  1.7614e-03  1.4183e-16  0:00:09   47

 Reversed flow on 156 faces (10.1% area) of pressure-inlet 7.

 Reversed flow on 338 faces (46.1% area) of pressure-outlet 9.
   954  2.2790e-02  3.5707e-03  1.7673e-03  1.4252e-16  0:00:07   46

 Reversed flow on 152 faces (9.4% area) of pressure-inlet 7.

 Reversed flow on 337 faces (45.8% area) of pressure-outlet 9.
   955  2.2185e-02  3.5811e-03  1.7727e-03  1.4359e-16  0:00:05   45

 Reversed flow on 152 faces (9.3% area) of pressure-inlet 7.

 Reversed flow on 326 faces (45.9% area) of pressure-outlet 9.
   956  2.1245e-02  3.5898e-03  1.7783e-03  1.4328e-16  0:00:04   44

 Reversed flow on 153 faces (9.5% area) of pressure-inlet 7.

 Reversed flow on 329 faces (46.7% area) of pressure-outlet 9.
   957  2.3715e-02  3.5979e-03  1.7873e-03  1.4111e-16  0:00:03   43

 Reversed flow on 157 faces (10.4% area) of pressure-inlet 7.

 Reversed flow on 336 faces (45.5% area) of pressure-outlet 9.

  iter  continuity  x-velocity  y-velocity      energy     time/iter
   958  2.3715e-02  3.6235e-03  1.7971e-03  1.4145e-16  0:00:03   42

 Reversed flow on 154 faces (10.0% area) of pressure-inlet 7.

 Reversed flow on 360 faces (47.5% area) of pressure-outlet 9.
   959  2.2976e-02  3.6305e-03  1.8053e-03  1.4242e-16  0:00:02   41

 Reversed flow on 153 faces (10.0% area) of pressure-inlet 7.

 Reversed flow on 340 faces (47.3% area) of pressure-outlet 9.
   960  2.2593e-02  3.6282e-03  1.8192e-03  1.4376e-16  0:00:02   40

 Reversed flow on 152 faces (10.1% area) of pressure-inlet 7.

 Reversed flow on 360 faces (47.4% area) of pressure-outlet 9.
   961  2.7603e-02  3.6390e-03  1.8331e-03  1.4339e-16  0:00:09   39

 Reversed flow on 151 faces (10.3% area) of pressure-inlet 7.

 Reversed flow on 353 faces (47.8% area) of pressure-outlet 9.
   962  2.2935e-02  3.6741e-03  1.8456e-03  1.4180e-16  0:00:07   38

 Reversed flow on 150 faces (10.3% area) of pressure-inlet 7.

 Reversed flow on 378 faces (50.6% area) of pressure-outlet 9.
   963  2.2029e-02  3.6949e-03  1.8564e-03  1.4216e-16  0:00:05   37

 Reversed flow on 149 faces (10.4% area) of pressure-inlet 7.

 Reversed flow on 329 faces (48.1% area) of pressure-outlet 9.
   964  2.2316e-02  3.6967e-03  1.8711e-03  1.4339e-16  0:00:04   36

 Reversed flow on 146 faces (10.2% area) of pressure-inlet 7.

 Reversed flow on 356 faces (49.5% area) of pressure-outlet 9.
   965  2.4484e-02  3.7011e-03  1.8859e-03  1.4284e-16  0:00:03   35

 Reversed flow on 146 faces (10.5% area) of pressure-inlet 7.

 Reversed flow on 383 faces (51.7% area) of pressure-outlet 9.
   966  2.3929e-02  3.7229e-03  1.8975e-03  1.4154e-16  0:00:03   34

 Reversed flow on 133 faces (9.7% area) of pressure-inlet 7.

 Reversed flow on 333 faces (50.6% area) of pressure-outlet 9.
   967  2.4640e-02  3.7551e-03  1.9085e-03  1.4286e-16  0:00:02   33

 Reversed flow on 130 faces (10.2% area) of pressure-inlet 7.

 Reversed flow on 369 faces (52.4% area) of pressure-outlet 9.
   968  2.3208e-02  3.7969e-03  1.9179e-03  1.4315e-16  0:00:02   32

 Reversed flow on 120 faces (9.6% area) of pressure-inlet 7.

 Reversed flow on 380 faces (53.2% area) of pressure-outlet 9.

  iter  continuity  x-velocity  y-velocity      energy     time/iter
   969  2.6362e-02  3.8020e-03  1.9277e-03  1.4301e-16  0:00:07   31

 Reversed flow on 114 faces (9.1% area) of pressure-inlet 7.

 Reversed flow on 317 faces (50.2% area) of pressure-outlet 9.
   970  2.3508e-02  3.8188e-03  1.9377e-03  1.4209e-16  0:00:06   30

 Reversed flow on 109 faces (9.3% area) of pressure-inlet 7.

 Reversed flow on 351 faces (52.2% area) of pressure-outlet 9.
   971  2.4004e-02  3.8356e-03  1.9465e-03  1.4355e-16  0:00:04   29

 Reversed flow on 104 faces (8.9% area) of pressure-inlet 7.

 Reversed flow on 384 faces (55.1% area) of pressure-outlet 9.
   972  2.3545e-02  3.8566e-03  1.9485e-03  1.4352e-16  0:00:03   28

 Reversed flow on 100 faces (8.9% area) of pressure-inlet 7.

 Reversed flow on 348 faces (53.1% area) of pressure-outlet 9.
   973  2.4799e-02  3.8790e-03  1.9498e-03  1.4218e-16  0:00:03   27

 Reversed flow on 97 faces (8.9% area) of pressure-inlet 7.

 Reversed flow on 351 faces (54.3% area) of pressure-outlet 9.
   974  2.5859e-02  3.9107e-03  1.9445e-03  1.4373e-16  0:00:02   26

 Reversed flow on 91 faces (9.0% area) of pressure-inlet 7.

 Reversed flow on 382 faces (56.2% area) of pressure-outlet 9.
   975  2.3437e-02  3.9490e-03  1.9359e-03  1.4377e-16  0:00:02   25

 Reversed flow on 82 faces (8.6% area) of pressure-inlet 7.

 Reversed flow on 362 faces (54.6% area) of pressure-outlet 9.
   976  2.2793e-02  3.9820e-03  1.9246e-03  1.4404e-16  0:00:01   24

 Reversed flow on 80 faces (8.6% area) of pressure-inlet 7.

 Reversed flow on 367 faces (55.3% area) of pressure-outlet 9.
   977  2.2116e-02  4.0018e-03  1.9157e-03  1.4432e-16  0:00:01   23

 Reversed flow on 81 faces (9.1% area) of pressure-inlet 7.

 Reversed flow on 368 faces (55.1% area) of pressure-outlet 9.
   978  2.1709e-02  4.0164e-03  1.9076e-03  1.4528e-16  0:00:05   22

 Reversed flow on 79 faces (9.0% area) of pressure-inlet 7.

 Reversed flow on 336 faces (53.5% area) of pressure-outlet 9.
   979  2.1547e-02  4.0267e-03  1.8990e-03  1.4484e-16  0:00:04   21

 Reversed flow on 75 faces (8.6% area) of pressure-inlet 7.

 Reversed flow on 373 faces (57.2% area) of pressure-outlet 9.

  iter  continuity  x-velocity  y-velocity      energy     time/iter
   980  2.1040e-02  4.0308e-03  1.8908e-03  1.4566e-16  0:00:03   20

 Reversed flow on 74 faces (8.7% area) of pressure-inlet 7.

 Reversed flow on 368 faces (56.4% area) of pressure-outlet 9.
   981  2.1192e-02  4.0356e-03  1.8814e-03  1.4543e-16  0:00:02   19

 Reversed flow on 73 faces (8.8% area) of pressure-inlet 7.

 Reversed flow on 361 faces (56.7% area) of pressure-outlet 9.
   982  2.0958e-02  4.0366e-03  1.8768e-03  1.4550e-16  0:00:02   18

 Reversed flow on 67 faces (8.0% area) of pressure-inlet 7.

 Reversed flow on 350 faces (57.1% area) of pressure-outlet 9.
   983  2.1447e-02  4.0439e-03  1.8692e-03  1.4438e-16  0:00:01   17

 Reversed flow on 67 faces (8.1% area) of pressure-inlet 7.

 Reversed flow on 389 faces (60.4% area) of pressure-outlet 9.
   984  2.1784e-02  4.0515e-03  1.8575e-03  1.4387e-16  0:00:01   16

 Reversed flow on 67 faces (8.4% area) of pressure-inlet 7.

 Reversed flow on 390 faces (62.2% area) of pressure-outlet 9.
   985  2.1271e-02  4.0614e-03  1.8459e-03  1.4539e-16  0:00:01   15

 Reversed flow on 62 faces (7.6% area) of pressure-inlet 7.

 Reversed flow on 398 faces (63.4% area) of pressure-outlet 9.
   986  2.1778e-02  4.0746e-03  1.8327e-03  1.4586e-16  0:00:01   14

 Reversed flow on 61 faces (7.6% area) of pressure-inlet 7.

 Reversed flow on 418 faces (67.0% area) of pressure-outlet 9.
   987  2.2041e-02  4.0863e-03  1.8192e-03  1.4573e-16  0:00:03   13

 Reversed flow on 59 faces (7.5% area) of pressure-inlet 7.

 Reversed flow on 384 faces (62.2% area) of pressure-outlet 9.
   988  2.1829e-02  4.0972e-03  1.8068e-03  1.4654e-16  0:00:02   12

 Reversed flow on 55 faces (7.0% area) of pressure-inlet 7.

 Reversed flow on 421 faces (67.1% area) of pressure-outlet 9.
   989  2.1120e-02  4.1067e-03  1.7935e-03  1.4727e-16  0:00:02   11

 Reversed flow on 57 faces (7.6% area) of pressure-inlet 7.

 Reversed flow on 396 faces (65.0% area) of pressure-outlet 9.
   990  2.0464e-02  4.1078e-03  1.7837e-03  1.4690e-16  0:00:01   10

 Reversed flow on 55 faces (7.4% area) of pressure-inlet 7.

 Reversed flow on 386 faces (62.8% area) of pressure-outlet 9.

  iter  continuity  x-velocity  y-velocity      energy     time/iter
   991  2.0153e-02  4.1098e-03  1.7756e-03  1.4700e-16  0:00:01    9

 Reversed flow on 56 faces (7.7% area) of pressure-inlet 7.

 Reversed flow on 383 faces (62.0% area) of pressure-outlet 9.
   992  1.9847e-02  4.1116e-03  1.7715e-03  1.4656e-16  0:00:01    8

 Reversed flow on 52 faces (7.2% area) of pressure-inlet 7.

 Reversed flow on 398 faces (64.0% area) of pressure-outlet 9.
   993  2.0205e-02  4.1180e-03  1.7636e-03  1.4762e-16  0:00:00    7

 Reversed flow on 52 faces (7.4% area) of pressure-inlet 7.

 Reversed flow on 372 faces (60.1% area) of pressure-outlet 9.
   994  1.9884e-02  4.1270e-03  1.7525e-03  1.4842e-16  0:00:00    6

 Reversed flow on 52 faces (7.6% area) of pressure-inlet 7.

 Reversed flow on 367 faces (57.8% area) of pressure-outlet 9.
   995  2.0172e-02  4.1403e-03  1.7349e-03  1.4817e-16  0:00:00    5

 Reversed flow on 48 faces (7.0% area) of pressure-inlet 7.

 Reversed flow on 363 faces (58.1% area) of pressure-outlet 9.
   996  2.0052e-02  4.1541e-03  1.7147e-03  1.4840e-16  0:00:01    4

 Reversed flow on 49 faces (7.3% area) of pressure-inlet 7.

 Reversed flow on 335 faces (54.6% area) of pressure-outlet 9.
   997  2.0651e-02  4.1704e-03  1.6897e-03  1.4913e-16  0:00:01    3

 Reversed flow on 49 faces (7.6% area) of pressure-inlet 7.

 Reversed flow on 329 faces (51.1% area) of pressure-outlet 9.
   998  2.1654e-02  4.1867e-03  1.6733e-03  1.4760e-16  0:00:00    2

 Reversed flow on 46 faces (7.2% area) of pressure-inlet 7.

 Reversed flow on 289 faces (46.9% area) of pressure-outlet 9.
   999  2.1550e-02  4.1922e-03  1.6499e-03  1.4731e-16  0:00:00    1

 Reversed flow on 46 faces (7.4% area) of pressure-inlet 7.

 Reversed flow on 290 faces (42.4% area) of pressure-outlet 9.
  1000  2.1179e-02  4.1985e-03  1.6322e-03  1.4787e-16  0:00:00    0
Writing "| gzip -2cf > SolutionMonitor.gz"...
Writing temporary file C:\\Users\\deubanks\\AppData\\Local\\Temp\\flntgz-93483 ...
Done.

Writing data to \\\\nas01.itap.purdue.edu\\puhome\\desktop\\412GIT\\AAE412_Project\\ANSYS_Files\\NozzleB\\NozzleB_files\\dp0\\FFF-5\\Fluent\\FFF-5.ip ...
	x-coord
	y-coord
	pressure
	x-velocity
	y-velocity
	temperature
Done.
Writing "| gzip -2cf > FFF-5-4.cas.gz"...
Writing temporary file C:\\Users\\deubanks\\AppData\\Local\\Temp\\flntgz-93484 ...
  162000 quadrilateral cells, zone  3, binary.
  162000 cell partition ids, zone  3, 4 partitions, binary.
  321960 2D interior faces, zone  1, binary.
     980 2D interior faces, zone  2, binary.
      80 2D pressure-inlet faces, zone  6, binary.
     300 2D pressure-inlet faces, zone  7, binary.
     380 2D wall faces, zone  8, binary.
     760 2D pressure-outlet faces, zone  9, binary.
     600 2D axis faces, zone 10, binary.
  163061 nodes, binary.
  163061 node flags, binary.
Done.

Writing "| gzip -2cf > FFF-5-4-01000.dat.gz"...
Writing temporary file C:\\Users\\deubanks\\AppData\\Local\\Temp\\flntgz-93485 ...
Done.


Performance Timer for 1000 iterations on 4 compute nodes
  Average wall-clock time per iteration:              0.080 sec
  Global reductions per iteration:                       80 ops
  Global reductions time per iteration:               0.000 sec (0.0%)
  Message count per iteration:                         4560 messages
  Data transfer per iteration:                        2.089 MB
  LE solves per iteration:                                4 solves
  LE wall-clock time per iteration:                   0.042 sec (52.9%)
  LE global solves per iteration:                         9 solves
  LE global wall-clock time per iteration:            0.000 sec (0.2%)
  LE global matrix maximum size:                        29
  AMG cycles per iteration:                          11.825 cycles
  Relaxation sweeps per iteration:                      401 sweeps
  Relaxation exchanges per iteration:                     0 exchanges
  LE early protections (stall) per iteration:           0.027 times
  LE early protections (divergence) per iteration:      0.000 times

  Total wall-clock time:                             79.516 sec


Transcript file has been opened in append mode. Time stamp=Mon Dec  2 21:46:52 2019.

Build Time: Apr 16 2019 10:49:06 
Executable Path: C:/PROGRA~1/ANSYSI~1/v194/fluent/ntbin/win64/fluent.exe

-------------------------------------------------------------------------------
ID    Hostname        Core  O.S.         PID    Vendor                   
-------------------------------------------------------------------------------
n7    X-ARMS2106PC44  8/8  Windows-x64  3628   Intel(R) Xeon(R) E3-1240 
n6    X-ARMS2106PC44  7/8  Windows-x64  7736   Intel(R) Xeon(R) E3-1240 
n5    X-ARMS2106PC44  6/8  Windows-x64  3532   Intel(R) Xeon(R) E3-1240 
n4    X-ARMS2106PC44  5/8  Windows-x64  7648   Intel(R) Xeon(R) E3-1240 
n3    X-ARMS2106PC44  4/8  Windows-x64  8712   Intel(R) Xeon(R) E3-1240 
n2    X-ARMS2106PC44  3/8  Windows-x64  9236   Intel(R) Xeon(R) E3-1240 
n1    X-ARMS2106PC44  2/8  Windows-x64  9100   Intel(R) Xeon(R) E3-1240 
n0*   X-ARMS2106PC44  1/8  Windows-x64  4360   Intel(R) Xeon(R) E3-1240 
host  X-ARMS2106PC44       Windows-x64  10212  Intel(R) Xeon(R) E3-1240 

MPI Option Selected: ibmmpi
Selected system interconnect: default
-------------------------------------------------------------------------------
Warning: Ignoring WB preference save-post-processing-images
Reading "W:\AAE412\Project\Git\ANSYS_Files\NozzleB\Run_In_Linux\NozzleB_Course.2.cas"...
Buffering for file scan...



   65200 quadrilateral cells, zone  3, binary.
Warning: reading 16 partition grid onto 8 compute node machine;
         will auto partition.
   65200 cell partition ids, zone  3, 16 partitions, binary.
  128620 2D interior faces, zone  1, binary.
     380 2D interior faces, zone  2, binary.
      40 2D pressure-inlet faces, zone  6, binary.
     100 2D velocity-inlet faces, zone  7, binary.
    1160 2D wall faces, zone  8, binary.
     320 2D pressure-far-field faces, zone  9, binary.
    1180 2D axis faces, zone 10, binary.
   66601 nodes, binary.
66601 node flags, binary.

Building...
     mesh
	auto partitioning mesh by Metis (fast),
	distributing mesh
		parts........,
		faces........,
		nodes........,
		cells........,
        bandwidth reduction using Reverse Cuthill-McKee: 8127/83 = 97.9157
     materials,
     interface,
     domains,
	mixture
     zones,
	axis
	nozzlewall
	surface_body
	interior-surface_body
	flowinlet
	ambientinlet
	farfield
	solid-surface_body
     parallel,
Done.

Preparing mesh for display...
Done.

Writing Settings file "W:\AAE412\Project\Git\ANSYS_Files\NozzleB\NozzleB_AfterLinux_files\dp0\FFF-5\Fluent\NozzleB_Course.2.set"...
	writing rp variables ... Done.
	writing domain variables ... Done.
	writing solid-surface_body (type fluid) (mixture) ... Done.
	writing farfield (type pressure-far-field) (mixture) ... Done.
	writing ambientinlet (type velocity-inlet) (mixture) ... Done.
	writing flowinlet (type pressure-inlet) (mixture) ... Done.
	writing interior-surface_body (type interior) (mixture) ... Done.
	writing surface_body (type interior) (mixture) ... Done.
	writing nozzlewall (type wall) (mixture) ... Done.
	writing axis (type axis) (mixture) ... Done.
	writing zones map name-id ... Done.
Reading "W:\AAE412\Project\Git\ANSYS_Files\NozzleB\NozzleB_AfterLinux_files\dp0\FFF-5\Fluent\NozzleB_Course.2.dat"...


Parallel variables...
Done.
Writing data to W:\\AAE412\\Project\\Git\\ANSYS_Files\\NozzleB\\NozzleB_AfterLinux_files\\dp0\\FFF-5\\Fluent\\NozzleB_Course.2.ip ...
	x-coord
	y-coord
	pressure
	x-velocity
	y-velocity
	temperature
	k
	epsilon
Done.

Performance Timer for 0 iterations on 8 compute nodes
  Average wall-clock time per iteration:              0.000 sec
  Global reductions per iteration:                        0 ops
  Global reductions time per iteration:               0.000 sec (0.0%)
  Message count per iteration:                            0 messages
  Data transfer per iteration:                        0.000 MB
  LE solves per iteration:                                0 solves
  LE wall-clock time per iteration:                   0.000 sec (0.0%)
  LE global solves per iteration:                         0 solves
  LE global wall-clock time per iteration:            0.000 sec (0.0%)
  LE global matrix maximum size:                         0
  AMG cycles per iteration:                           0.000 cycles
  Relaxation sweeps per iteration:                        0 sweeps
  Relaxation exchanges per iteration:                     0 exchanges
  LE early protections (stall) per iteration:           0.000 times
  LE early protections (divergence) per iteration:      0.000 times

  Total wall-clock time:                              0.000 sec

