
Build Time: Apr 16 2019 10:49:06 
Executable Path: C:/PROGRA~1/ANSYSI~1/v194/fluent/ntbin/win64/fluent.exe

-------------------------------------------------------------------------------
ID    Hostname        Core  O.S.         PID    Vendor                    
-------------------------------------------------------------------------------
n3    X-ARMS2106PC64  4/12  Windows-x64  9336   Intel(R) Core(TM) i7-8700 
n2    X-ARMS2106PC64  3/12  Windows-x64  12824  Intel(R) Core(TM) i7-8700 
n1    X-ARMS2106PC64  2/12  Windows-x64  13428  Intel(R) Core(TM) i7-8700 
n0*   X-ARMS2106PC64  1/12  Windows-x64  2516   Intel(R) Core(TM) i7-8700 
host  X-ARMS2106PC64        Windows-x64  5480   Intel(R) Core(TM) i7-8700 

MPI Option Selected: ibmmpi
Selected system interconnect: default
-------------------------------------------------------------------------------
Warning: Ignoring WB preference save-post-processing-images
Multicore SMT processors detected. Processor affinity set!
Reading "\"| gunzip -c \\"W:\Documents\AAE412finalproj_files\dp0\FFF-1\Fluent\FFF-1.1-Setup-Output.cas.gz\\"\""...
Buffering for file scan...



    4650 quadrilateral cells, zone  3, binary.
    4650 cell partition ids, zone  3, 4 partitions, binary.
    8955 2D interior faces, zone  1, binary.
     170 2D interior faces, zone  2, binary.
      10 2D pressure-inlet faces, zone  6, binary.
      50 2D pressure-inlet faces, zone  7, binary.
      65 2D wall faces, zone  8, binary.
     135 2D pressure-outlet faces, zone  9, binary.
      90 2D axis faces, zone 10, binary.
    4826 nodes, binary.
4826 node flags, binary.

Building...
     mesh
	distributing mesh
		parts....,
		faces....,
		nodes....,
		cells....,
        bandwidth reduction using Reverse Cuthill-McKee: 1169/35 = 33.4
     materials,
     interface,
     domains,
	mixture
     zones,
	axis
	nozzlewall
	surface_body
	interior-surface_body
	ambientinlet
	farfield
	flowinlet
	solid-surface_bodySetting solid-surface_body (mixture) ... Done.
 Setting zone id of solid-surface_body to 3.
 Setting zone id of flowinlet to 6.
 Setting zone id of farfield to 9.
 Setting zone id of ambientinlet to 7.
 Setting zone id of interior-surface_body to 1.
 Setting zone id of surface_body to 2.
 Setting zone id of nozzlewall to 8.
 Setting zone id of axis to 10.
Done.
Setting solid-surface_body (mixture) ... Done.
Setting flowinlet (mixture) ... Done.
Setting farfield (mixture) ... Done.
Setting ambientinlet (mixture) ... Done.
Setting interior-surface_body (mixture) ... Done.
Setting surface_body (mixture) ... Done.
Setting nozzlewall (mixture) ... Done.
Setting axis (mixture) ... Done.

     parallel,
Done.

Preparing mesh for display...
Warning: The use of axis boundary conditions is not appropriate for
         a 2D/3D flow problem. Please consider changing the zone
         type to symmetry or wall, or the problem to axisymmetric.

Warning: The use of axis boundary conditions is not appropriate for
         a 2D/3D flow problem. Please consider changing the zone
         type to symmetry or wall, or the problem to axisymmetric.

Done.
Warning: The use of axis boundary conditions is not appropriate for
         a 2D/3D flow problem. Please consider changing the zone
         type to symmetry or wall, or the problem to axisymmetric.

Reading "\"| gunzip -c \\"W:\Documents\AAE412finalproj_files\dp0\FFF-1\Fluent\FFF-1.1-4-01000.dat.gz\\"\""...


Parallel variables...
Done.

  iter  continuity  x-velocity  y-velocity      energy     time/iter
  1000  2.3793e-04  1.1636e-02  6.0941e-03  1.4749e-16  0:00:00 1000

 Reversed flow on 18 faces (51.9% area) of pressure-inlet 7.

 Reversed flow on 73 faces (54.1% area) of pressure-outlet 9.
  1001  1.5496e-04  1.1435e-02  6.1833e-03  1.5665e-16  0:00:00  999

 Reversed flow on 19 faces (57.0% area) of pressure-inlet 7.

 Reversed flow on 82 faces (54.0% area) of pressure-outlet 9.
  1002  1.4264e-04  1.1319e-02  6.2922e-03  1.5903e-16  0:00:00  998

 Reversed flow on 20 faces (58.4% area) of pressure-inlet 7.

 Reversed flow on 85 faces (55.7% area) of pressure-outlet 9.
  1003  1.2818e-04  1.1355e-02  6.3024e-03  1.5900e-16  0:00:00  997

 Reversed flow on 21 faces (59.8% area) of pressure-inlet 7.

 Reversed flow on 70 faces (48.8% area) of pressure-outlet 9.
  1004  1.1773e-04  1.1571e-02  6.2578e-03  1.5915e-16  0:00:00  996

 Reversed flow on 17 faces (36.2% area) of pressure-inlet 7.

 Reversed flow on 81 faces (57.5% area) of pressure-outlet 9.
  1005  1.2622e-04  1.1817e-02  6.1441e-03  1.6285e-16  0:00:00  995

 Reversed flow on 18 faces (37.2% area) of pressure-inlet 7.

 Reversed flow on 75 faces (58.1% area) of pressure-outlet 9.
  1006  1.2145e-04  1.2105e-02  5.9286e-03  1.6135e-16  0:00:00  994

 Reversed flow on 19 faces (29.5% area) of pressure-inlet 7.

 Reversed flow on 66 faces (59.0% area) of pressure-outlet 9.
  1007  1.1224e-04  1.2498e-02  5.6803e-03  1.5672e-16  0:16:33  993

 Reversed flow on 34 faces (32.4% area) of pressure-inlet 7.

 Reversed flow on 73 faces (62.5% area) of pressure-outlet 9.
  1008  1.2107e-04  1.2918e-02  5.3608e-03  1.5273e-16  0:13:14  992

 Reversed flow on 32 faces (28.0% area) of pressure-inlet 7.

 Reversed flow on 67 faces (61.5% area) of pressure-outlet 9.
  1009  1.1577e-04  1.3250e-02  5.1395e-03  1.5380e-16  0:10:34  991

 Reversed flow on 31 faces (25.9% area) of pressure-inlet 7.

 Reversed flow on 73 faces (68.7% area) of pressure-outlet 9.
  1010  1.1576e-04  1.3429e-02  5.0429e-03  1.5195e-16  0:08:27  990

 Reversed flow on 30 faces (24.0% area) of pressure-inlet 7.

 Reversed flow on 79 faces (72.2% area) of pressure-outlet 9.

  iter  continuity  x-velocity  y-velocity      energy     time/iter
  1011  1.0532e-04  1.3431e-02  4.9800e-03  1.5022e-16  0:06:45  989

 Reversed flow on 29 faces (22.3% area) of pressure-inlet 7.

 Reversed flow on 66 faces (77.2% area) of pressure-outlet 9.
  1012  1.0489e-04  1.3252e-02  4.9912e-03  1.4566e-16  0:05:24  988

 Reversed flow on 29 faces (22.3% area) of pressure-inlet 7.

 Reversed flow on 67 faces (77.6% area) of pressure-outlet 9.
  1013  1.0227e-04  1.3023e-02  4.9939e-03  1.4847e-16  0:04:19  987

 Reversed flow on 29 faces (22.3% area) of pressure-inlet 7.

 Reversed flow on 82 faces (80.3% area) of pressure-outlet 9.
  1014  1.0241e-04  1.2766e-02  4.9853e-03  1.5271e-16  0:03:27  986

 Reversed flow on 29 faces (22.3% area) of pressure-inlet 7.

 Reversed flow on 71 faces (77.0% area) of pressure-outlet 9.
  1015  8.5660e-05  1.2402e-02  5.0174e-03  1.4897e-16  0:02:45  985

 Reversed flow on 29 faces (22.3% area) of pressure-inlet 7.

 Reversed flow on 61 faces (71.3% area) of pressure-outlet 9.
  1016  8.2867e-05  1.1914e-02  4.9611e-03  1.4792e-16  0:02:12  984

 Reversed flow on 28 faces (20.6% area) of pressure-inlet 7.

 Reversed flow on 52 faces (65.7% area) of pressure-outlet 9.
  1017  7.6964e-05  1.1375e-02  4.7666e-03  1.5048e-16  0:01:46  983

 Reversed flow on 28 faces (20.6% area) of pressure-inlet 7.

 Reversed flow on 47 faces (57.5% area) of pressure-outlet 9.
  1018  7.5836e-05  1.0666e-02  4.5115e-03  1.4745e-16  0:01:24  982

 Reversed flow on 28 faces (20.6% area) of pressure-inlet 7.

 Reversed flow on 38 faces (37.9% area) of pressure-outlet 9.
  1019  7.8710e-05  9.7281e-03  4.2077e-03  1.5177e-16  0:01:07  981

 Reversed flow on 28 faces (20.6% area) of pressure-inlet 7.

 Reversed flow on 52 faces (31.3% area) of pressure-outlet 9.
  1020  7.5147e-05  8.6496e-03  3.6667e-03  1.5000e-16  0:00:54  980

 Reversed flow on 28 faces (20.6% area) of pressure-inlet 7.

 Reversed flow on 51 faces (28.3% area) of pressure-outlet 9.
  1021  8.1144e-05  7.5196e-03  3.1668e-03  1.4734e-16  0:00:43  979

 Reversed flow on 28 faces (20.6% area) of pressure-inlet 7.

 Reversed flow on 50 faces (23.6% area) of pressure-outlet 9.

  iter  continuity  x-velocity  y-velocity      energy     time/iter
  1022  9.2041e-05  6.5704e-03  2.7261e-03  1.5225e-16  0:00:34  978

 Reversed flow on 28 faces (20.6% area) of pressure-inlet 7.

 Reversed flow on 58 faces (22.1% area) of pressure-outlet 9.
  1023  9.6855e-05  5.7938e-03  2.3783e-03  1.5091e-16  0:00:28  977

 Reversed flow on 28 faces (20.6% area) of pressure-inlet 7.

 Reversed flow on 62 faces (22.0% area) of pressure-outlet 9.
  1024  1.1118e-04  5.3991e-03  2.1508e-03  1.5328e-16  0:00:22  976

 Reversed flow on 28 faces (20.6% area) of pressure-inlet 7.

 Reversed flow on 58 faces (18.6% area) of pressure-outlet 9.
  1025  1.2405e-04  5.3534e-03  2.1054e-03  1.4442e-16  0:00:18  975

 Reversed flow on 27 faces (19.0% area) of pressure-inlet 7.

 Reversed flow on 60 faces (37.0% area) of pressure-outlet 9.
  1026  1.2240e-04  5.6226e-03  2.1677e-03  1.4480e-16  0:00:14  974

 Reversed flow on 27 faces (19.0% area) of pressure-inlet 7.

 Reversed flow on 83 faces (49.4% area) of pressure-outlet 9.
  1027  1.0344e-04  6.0034e-03  2.3449e-03  1.4676e-16  0:00:11  973

 Reversed flow on 27 faces (19.0% area) of pressure-inlet 7.

 Reversed flow on 85 faces (55.8% area) of pressure-outlet 9.
  1028  1.0787e-04  6.4577e-03  2.5699e-03  1.4673e-16  0:00:09  972

 Reversed flow on 27 faces (19.0% area) of pressure-inlet 7.

 Reversed flow on 83 faces (55.5% area) of pressure-outlet 9.
  1029  1.1076e-04  7.0082e-03  2.7719e-03  1.4437e-16  0:00:07  971

 Reversed flow on 27 faces (19.0% area) of pressure-inlet 7.

 Reversed flow on 75 faces (52.6% area) of pressure-outlet 9.
  1030  1.2042e-04  7.5411e-03  2.9781e-03  1.5500e-16  0:00:06  970

 Reversed flow on 26 faces (17.6% area) of pressure-inlet 7.

 Reversed flow on 66 faces (46.1% area) of pressure-outlet 9.
  1031  1.1251e-04  8.2101e-03  3.1846e-03  1.5552e-16  0:00:05  969

 Reversed flow on 26 faces (17.6% area) of pressure-inlet 7.

 Reversed flow on 76 faces (53.9% area) of pressure-outlet 9.
  1032  1.0821e-04  8.9209e-03  3.3969e-03  1.5588e-16  0:00:04  968

 Reversed flow on 26 faces (17.6% area) of pressure-inlet 7.

 Reversed flow on 75 faces (44.2% area) of pressure-outlet 9.

  iter  continuity  x-velocity  y-velocity      energy     time/iter
  1033  1.1497e-04  9.5610e-03  3.7103e-03  1.5002e-16  0:00:03  967

 Reversed flow on 26 faces (17.6% area) of pressure-inlet 7.

 Reversed flow on 74 faces (44.7% area) of pressure-outlet 9.
  1034  1.1410e-04  1.0232e-02  4.0261e-03  1.5134e-16  0:03:16  966

 Reversed flow on 25 faces (17.3% area) of pressure-inlet 7.

 Reversed flow on 77 faces (41.7% area) of pressure-outlet 9.
  1035  1.1073e-04  1.0918e-02  4.4507e-03  1.5615e-16  0:02:36  965

 Reversed flow on 25 faces (17.3% area) of pressure-inlet 7.

 Reversed flow on 71 faces (40.9% area) of pressure-outlet 9.
  1036  1.2335e-04  1.1591e-02  4.9042e-03  1.5959e-16  0:02:05  964

 Reversed flow on 23 faces (15.7% area) of pressure-inlet 7.

 Reversed flow on 40 faces (29.6% area) of pressure-outlet 9.
  1037  1.3212e-04  1.2369e-02  5.5149e-03  1.5511e-16  0:01:40  963

 Reversed flow on 23 faces (15.7% area) of pressure-inlet 7.

 Reversed flow on 51 faces (39.2% area) of pressure-outlet 9.
  1038  1.4202e-04  1.3436e-02  6.0933e-03  1.6079e-16  0:01:20  962

 Reversed flow on 22 faces (15.4% area) of pressure-inlet 7.

 Reversed flow on 66 faces (43.2% area) of pressure-outlet 9.
  1039  1.4124e-04  1.4371e-02  6.5595e-03  1.5871e-16  0:01:04  961

 Reversed flow on 22 faces (16.4% area) of pressure-inlet 7.

 Reversed flow on 64 faces (37.0% area) of pressure-outlet 9.
  1040  1.5697e-04  1.5198e-02  7.0815e-03  1.6023e-16  0:00:51  960

 Reversed flow on 20 faces (14.7% area) of pressure-inlet 7.

 Reversed flow on 61 faces (41.2% area) of pressure-outlet 9.
  1041  1.5602e-04  1.6012e-02  7.5816e-03  1.5259e-16  0:00:41  959

 Reversed flow on 19 faces (14.3% area) of pressure-inlet 7.

 Reversed flow on 64 faces (45.3% area) of pressure-outlet 9.
  1042  1.7878e-04  1.6536e-02  8.0956e-03  1.5517e-16  0:00:33  958

 Reversed flow on 19 faces (15.3% area) of pressure-inlet 7.

 Reversed flow on 56 faces (45.6% area) of pressure-outlet 9.
  1043  1.8211e-04  1.7578e-02  8.6049e-03  1.5608e-16  0:00:26  957

 Reversed flow on 19 faces (16.3% area) of pressure-inlet 7.

 Reversed flow on 60 faces (44.2% area) of pressure-outlet 9.

  iter  continuity  x-velocity  y-velocity      energy     time/iter
  1044  1.6827e-04  1.8076e-02  8.9502e-03  1.5674e-16  0:00:21  956

 Reversed flow on 17 faces (14.5% area) of pressure-inlet 7.

 Reversed flow on 61 faces (49.5% area) of pressure-outlet 9.
  1045  1.8570e-04  1.8023e-02  9.2982e-03  1.5961e-16  0:00:17  955

 Reversed flow on 16 faces (14.0% area) of pressure-inlet 7.

 Reversed flow on 55 faces (42.1% area) of pressure-outlet 9.
  1046  1.6678e-04  1.7846e-02  9.5979e-03  1.6188e-16  0:00:13  954

 Reversed flow on 15 faces (13.5% area) of pressure-inlet 7.

 Reversed flow on 58 faces (38.6% area) of pressure-outlet 9.
  1047  1.7318e-04  1.7569e-02  9.9510e-03  1.5436e-16  0:00:11  953

 Reversed flow on 14 faces (12.9% area) of pressure-inlet 7.

 Reversed flow on 43 faces (26.1% area) of pressure-outlet 9.
  1048  1.9119e-04  1.7565e-02  9.9712e-03  1.5864e-16  0:00:08  952

 Reversed flow on 14 faces (13.8% area) of pressure-inlet 7.

 Reversed flow on 66 faces (31.8% area) of pressure-outlet 9.
  1049  2.3242e-04  1.7845e-02  9.8733e-03  1.5568e-16  0:00:07  951

 Reversed flow on 20 faces (15.6% area) of pressure-inlet 7.

 Reversed flow on 44 faces (14.9% area) of pressure-outlet 9.
  1050  1.7245e-04  1.8215e-02  1.0245e-02  1.5774e-16  0:00:05  950

 Reversed flow on 20 faces (15.3% area) of pressure-inlet 7.

 Reversed flow on 50 faces (16.3% area) of pressure-outlet 9.
  1051  1.8453e-04  1.7131e-02  1.0142e-02  1.5568e-16  0:00:04  949

 Reversed flow on 19 faces (13.8% area) of pressure-inlet 7.

 Reversed flow on 37 faces (12.9% area) of pressure-outlet 9.
  1052  1.6690e-04  1.6943e-02  9.6487e-03  1.5445e-16  0:00:03  948

 Reversed flow on 19 faces (13.2% area) of pressure-inlet 7.

 Reversed flow on 58 faces (22.3% area) of pressure-outlet 9.
  1053  1.8973e-04  1.5835e-02  9.3692e-03  1.5208e-16  0:00:03  947

 Reversed flow on 18 faces (11.5% area) of pressure-inlet 7.

 Reversed flow on 58 faces (22.5% area) of pressure-outlet 9.
  1054  1.7686e-04  1.5489e-02  8.9880e-03  1.5596e-16  0:00:02  946

 Reversed flow on 18 faces (11.2% area) of pressure-inlet 7.

 Reversed flow on 63 faces (25.4% area) of pressure-outlet 9.

  iter  continuity  x-velocity  y-velocity      energy     time/iter
  1055  1.7708e-04  1.4547e-02  8.5282e-03  1.5523e-16  0:00:02  945

 Reversed flow on 18 faces (11.8% area) of pressure-inlet 7.

 Reversed flow on 58 faces (31.5% area) of pressure-outlet 9.
  1056  1.7882e-04  1.4693e-02  8.0923e-03  1.5363e-16  0:00:01  944

 Reversed flow on 17 faces (10.9% area) of pressure-inlet 7.

 Reversed flow on 57 faces (38.6% area) of pressure-outlet 9.
  1057  1.7333e-04  1.4093e-02  7.7670e-03  1.5929e-16  0:00:01  943

 Reversed flow on 16 faces (9.9% area) of pressure-inlet 7.

 Reversed flow on 63 faces (44.2% area) of pressure-outlet 9.
  1058  1.7315e-04  1.3490e-02  7.5937e-03  1.5972e-16  0:00:01  942

 Reversed flow on 15 faces (7.0% area) of pressure-inlet 7.

 Reversed flow on 66 faces (47.3% area) of pressure-outlet 9.
  1059  1.7257e-04  1.3192e-02  7.5327e-03  1.5481e-16  0:00:01  941

 Reversed flow on 16 faces (7.7% area) of pressure-inlet 7.

 Reversed flow on 55 faces (45.0% area) of pressure-outlet 9.
  1060  1.7440e-04  1.2990e-02  7.4706e-03  1.5433e-16  0:00:01  940

 Reversed flow on 16 faces (8.3% area) of pressure-inlet 7.

 Reversed flow on 60 faces (46.7% area) of pressure-outlet 9.
  1061  1.6622e-04  1.2767e-02  7.4916e-03  1.5957e-16  0:00:00  939

 Reversed flow on 17 faces (9.1% area) of pressure-inlet 7.

 Reversed flow on 64 faces (48.1% area) of pressure-outlet 9.
  1062  1.7981e-04  1.2667e-02  7.5963e-03  1.5723e-16  0:00:00  938

 Reversed flow on 17 faces (9.7% area) of pressure-inlet 7.

 Reversed flow on 68 faces (50.4% area) of pressure-outlet 9.
  1063  1.6824e-04  1.2963e-02  7.7862e-03  1.5255e-16  0:00:00  937

 Reversed flow on 18 faces (10.7% area) of pressure-inlet 7.

 Reversed flow on 66 faces (45.7% area) of pressure-outlet 9.
  1064  1.7847e-04  1.3479e-02  8.1912e-03  1.5733e-16  0:03:07  936

 Reversed flow on 18 faces (11.4% area) of pressure-inlet 7.

 Reversed flow on 73 faces (41.2% area) of pressure-outlet 9.
  1065  1.8171e-04  1.4140e-02  8.4603e-03  1.6234e-16  0:02:30  935

 Reversed flow on 19 faces (12.6% area) of pressure-inlet 7.

 Reversed flow on 57 faces (37.7% area) of pressure-outlet 9.

  iter  continuity  x-velocity  y-velocity      energy     time/iter
  1066  1.7007e-04  1.4877e-02  8.7802e-03  1.5800e-16  0:02:00  934

 Reversed flow on 19 faces (13.4% area) of pressure-inlet 7.

 Reversed flow on 65 faces (43.3% area) of pressure-outlet 9.
  1067  1.7661e-04  1.5720e-02  9.0748e-03  1.6486e-16  0:01:36  933

 Reversed flow on 20 faces (13.7% area) of pressure-inlet 7.

 Reversed flow on 61 faces (38.4% area) of pressure-outlet 9.
  1068  1.5743e-04  1.6373e-02  9.3164e-03  1.6012e-16  0:01:16  932

 Reversed flow on 20 faces (13.7% area) of pressure-inlet 7.

 Reversed flow on 62 faces (40.8% area) of pressure-outlet 9.
  1069  1.4388e-04  1.6938e-02  9.4165e-03  1.5808e-16  0:01:01  931

 Reversed flow on 20 faces (12.9% area) of pressure-inlet 7.

 Reversed flow on 66 faces (49.8% area) of pressure-outlet 9.
  1070  1.3792e-04  1.7409e-02  9.6912e-03  1.5424e-16  0:00:49  930

 Reversed flow on 18 faces (10.5% area) of pressure-inlet 7.

 Reversed flow on 62 faces (50.9% area) of pressure-outlet 9.
  1071  1.3999e-04  1.8085e-02  9.8420e-03  1.5359e-16  0:00:39  929

 Reversed flow on 18 faces (10.5% area) of pressure-inlet 7.

 Reversed flow on 57 faces (51.7% area) of pressure-outlet 9.
  1072  1.4907e-04  1.8598e-02  9.9638e-03  1.5422e-16  0:00:31  928

 Reversed flow on 19 faces (10.2% area) of pressure-inlet 7.

 Reversed flow on 66 faces (51.6% area) of pressure-outlet 9.
  1073  1.5380e-04  1.8881e-02  1.0072e-02  1.6100e-16  0:00:25  927

 Reversed flow on 19 faces (9.7% area) of pressure-inlet 7.

 Reversed flow on 67 faces (47.6% area) of pressure-outlet 9.
  1074  1.4599e-04  1.9277e-02  1.0293e-02  1.5837e-16  0:00:20  926

 Reversed flow on 17 faces (9.1% area) of pressure-inlet 7.

 Reversed flow on 60 faces (40.1% area) of pressure-outlet 9.
  1075  1.4549e-04  1.9390e-02  1.0318e-02  1.5793e-16  0:00:16  925

 Reversed flow on 15 faces (8.0% area) of pressure-inlet 7.

 Reversed flow on 45 faces (18.2% area) of pressure-outlet 9.
  1076  1.4408e-04  1.9758e-02  1.0268e-02  1.5753e-16  0:00:13  924

 Reversed flow on 13 faces (6.8% area) of pressure-inlet 7.

 Reversed flow on 22 faces (13.0% area) of pressure-outlet 9.

  iter  continuity  x-velocity  y-velocity      energy     time/iter
  1077  1.3849e-04  1.9721e-02  1.0299e-02  1.5474e-16  0:00:10  923

 Reversed flow on 12 faces (6.5% area) of pressure-inlet 7.

 Reversed flow on 56 faces (19.3% area) of pressure-outlet 9.
  1078  1.4324e-04  1.9630e-02  1.0306e-02  1.5620e-16  0:00:08  922

 Reversed flow on 11 faces (5.7% area) of pressure-inlet 7.

 Reversed flow on 44 faces (14.4% area) of pressure-outlet 9.
  1079  1.8764e-04  1.9128e-02  1.0185e-02  1.5148e-16  0:00:06  921

 Reversed flow on 10 faces (5.4% area) of pressure-inlet 7.

 Reversed flow on 32 faces (11.3% area) of pressure-outlet 9.
  1080  1.6466e-04  1.8696e-02  1.0039e-02  1.5372e-16  0:00:05  920

 Reversed flow on 9 faces (5.0% area) of pressure-inlet 7.

 Reversed flow on 48 faces (13.8% area) of pressure-outlet 9.
  1081  1.4881e-04  1.8316e-02  9.9245e-03  1.5719e-16  0:00:04  919

 Reversed flow on 10 faces (5.7% area) of pressure-inlet 7.

 Reversed flow on 46 faces (11.9% area) of pressure-outlet 9.
  1082  1.4891e-04  1.7545e-02  9.5865e-03  1.5614e-16  0:00:03  918

 Reversed flow on 8 faces (4.6% area) of pressure-inlet 7.

 Reversed flow on 33 faces (9.7% area) of pressure-outlet 9.
  1083  1.7161e-04  1.7238e-02  9.3192e-03  1.5143e-16  0:00:03  917

 Reversed flow on 7 faces (4.1% area) of pressure-inlet 7.

 Reversed flow on 47 faces (14.6% area) of pressure-outlet 9.
  1084  1.5388e-04  1.7342e-02  9.2276e-03  1.4552e-16  0:00:02  916

 Reversed flow on 10 faces (7.0% area) of pressure-inlet 7.

 Reversed flow on 46 faces (15.8% area) of pressure-outlet 9.
  1085  1.4765e-04  1.7609e-02  9.0370e-03  1.4877e-16  0:00:02  915

 Reversed flow on 7 faces (4.5% area) of pressure-inlet 7.

 Reversed flow on 48 faces (17.2% area) of pressure-outlet 9.
  1086  1.3950e-04  1.7795e-02  8.9369e-03  1.4992e-16  0:00:01  914

 Reversed flow on 11 faces (6.1% area) of pressure-inlet 7.

 Reversed flow on 70 faces (31.7% area) of pressure-outlet 9.
  1087  1.4341e-04  1.7789e-02  8.8287e-03  1.4899e-16  0:00:01  913

 Reversed flow on 13 faces (8.4% area) of pressure-inlet 7.

 Reversed flow on 66 faces (41.9% area) of pressure-outlet 9.

  iter  continuity  x-velocity  y-velocity      energy     time/iter
  1088  1.3957e-04  1.7611e-02  8.6741e-03  1.5374e-16  0:00:01  912

 Reversed flow on 9 faces (5.7% area) of pressure-inlet 7.

 Reversed flow on 63 faces (46.6% area) of pressure-outlet 9.
  1089  1.4765e-04  1.7423e-02  8.5315e-03  1.5986e-16  0:00:01  911

 Reversed flow on 7 faces (4.5% area) of pressure-inlet 7.

 Reversed flow on 80 faces (56.6% area) of pressure-outlet 9.
  1090  1.4903e-04  1.7236e-02  8.4883e-03  1.5783e-16  0:00:01  910

 Reversed flow on 4 faces (2.9% area) of pressure-inlet 7.

 Reversed flow on 82 faces (58.2% area) of pressure-outlet 9.
  1091  1.4658e-04  1.7184e-02  8.5601e-03  1.6243e-16  0:00:00  909

 Reversed flow on 4 faces (3.0% area) of pressure-inlet 7.

 Reversed flow on 73 faces (52.8% area) of pressure-outlet 9.
  1092  1.5068e-04  1.7098e-02  8.5681e-03  1.5493e-16  0:00:00  908

 Reversed flow on 5 faces (3.6% area) of pressure-inlet 7.

 Reversed flow on 71 faces (54.7% area) of pressure-outlet 9.
  1093  1.6662e-04  1.6959e-02  8.5986e-03  1.6426e-16  0:03:02  907

 Reversed flow on 5 faces (3.5% area) of pressure-inlet 7.

 Reversed flow on 67 faces (56.7% area) of pressure-outlet 9.
  1094  1.7357e-04  1.7024e-02  8.6607e-03  1.5652e-16  0:02:25  906

 Reversed flow on 4 faces (2.7% area) of pressure-inlet 7.

 Reversed flow on 74 faces (66.1% area) of pressure-outlet 9.
  1095  1.7658e-04  1.7177e-02  8.6854e-03  1.5781e-16  0:01:56  905

 Reversed flow on 63 faces (51.8% area) of pressure-outlet 9.
  1096  1.7493e-04  1.7802e-02  8.7764e-03  1.5771e-16  0:01:33  904

 Reversed flow on 1 face (0.8% area) of pressure-inlet 7.

 Reversed flow on 55 faces (46.7% area) of pressure-outlet 9.
  1097  1.6746e-04  1.8261e-02  8.6934e-03  1.5784e-16  0:01:14  903

 Reversed flow on 1 face (0.8% area) of pressure-inlet 7.

 Reversed flow on 57 faces (30.2% area) of pressure-outlet 9.
  1098  1.7138e-04  1.8793e-02  8.7070e-03  1.5832e-16  0:00:59  902

 Reversed flow on 27 faces (14.2% area) of pressure-outlet 9.

  iter  continuity  x-velocity  y-velocity      energy     time/iter
  1099  1.6606e-04  1.8792e-02  8.7668e-03  1.5854e-16  0:00:47  901

 Reversed flow on 54 faces (17.4% area) of pressure-outlet 9.
  1100  1.8806e-04  1.8520e-02  8.8736e-03  1.5688e-16  0:00:38  900

 Reversed flow on 35 faces (10.8% area) of pressure-outlet 9.
  1101  1.7315e-04  1.8158e-02  8.8641e-03  1.5551e-16  0:00:30  899

 Reversed flow on 33 faces (12.3% area) of pressure-outlet 9.
  1102  1.6554e-04  1.7186e-02  8.9236e-03  1.5009e-16  0:00:24  898

 Reversed flow on 45 faces (14.5% area) of pressure-outlet 9.
  1103  1.8027e-04  1.6228e-02  9.0280e-03  1.5357e-16  0:00:19  897

 Reversed flow on 2 faces (3.9% area) of pressure-inlet 7.

 Reversed flow on 35 faces (9.5% area) of pressure-outlet 9.
  1104  1.6766e-04  1.5216e-02  9.0885e-03  1.4850e-16  0:00:15  896

 Reversed flow on 3 faces (6.1% area) of pressure-inlet 7.

 Reversed flow on 53 faces (14.4% area) of pressure-outlet 9.
  1105  2.0708e-04  1.4275e-02  9.0335e-03  1.4964e-16  0:00:12  895

 Reversed flow on 3 faces (6.1% area) of pressure-inlet 7.

 Reversed flow on 55 faces (17.9% area) of pressure-outlet 9.
  1106  1.7022e-04  1.3651e-02  8.8668e-03  1.5447e-16  0:00:10  894

 Reversed flow on 4 faces (8.4% area) of pressure-inlet 7.

 Reversed flow on 50 faces (22.9% area) of pressure-outlet 9.
  1107  1.7813e-04  1.3291e-02  8.6675e-03  1.5566e-16  0:00:08  893

 Reversed flow on 3 faces (6.9% area) of pressure-inlet 7.

 Reversed flow on 66 faces (42.4% area) of pressure-outlet 9.
  1108  1.7906e-04  1.3165e-02  8.4677e-03  1.5810e-16  0:00:06  892

 Reversed flow on 79 faces (47.0% area) of pressure-outlet 9.
  1109  1.7129e-04  1.3093e-02  8.2757e-03  1.6010e-16  0:00:05  891

 Reversed flow on 56 faces (44.2% area) of pressure-outlet 9.

  iter  continuity  x-velocity  y-velocity      energy     time/iter
  1110  1.6613e-04  1.3010e-02  8.0105e-03  1.5626e-16  0:00:04  890

 Reversed flow on 52 faces (39.6% area) of pressure-outlet 9.
  1111  1.6169e-04  1.2814e-02  7.7301e-03  1.6438e-16  0:00:03  889

 Reversed flow on 71 faces (46.7% area) of pressure-outlet 9.
  1112  1.5895e-04  1.2759e-02  7.5634e-03  1.5619e-16  0:00:03  888

 Reversed flow on 65 faces (46.1% area) of pressure-outlet 9.
  1113  1.4430e-04  1.2925e-02  7.3415e-03  1.5481e-16  0:00:02  887

 Reversed flow on 43 faces (38.5% area) of pressure-outlet 9.
  1114  1.5196e-04  1.3045e-02  7.1258e-03  1.5465e-16  0:00:02  886

 Reversed flow on 68 faces (45.5% area) of pressure-outlet 9.
  1115  1.4147e-04  1.3777e-02  7.0491e-03  1.4975e-16  0:00:01  885

 Reversed flow on 35 faces (32.0% area) of pressure-outlet 9.
  1116  1.2673e-04  1.3333e-02  6.9945e-03  1.5297e-16  0:00:01  884

 Reversed flow on 62 faces (30.4% area) of pressure-outlet 9.
  1117  1.3563e-04  1.3037e-02  6.9763e-03  1.4822e-16  0:00:01  883

 Reversed flow on 66 faces (47.9% area) of pressure-outlet 9.
  1118  1.5753e-04  1.2948e-02  7.0259e-03  1.5707e-16  0:00:01  882

 Reversed flow on 52 faces (39.5% area) of pressure-outlet 9.
  1119  1.4746e-04  1.3275e-02  6.9489e-03  1.5755e-16  0:00:01  881

 Reversed flow on 72 faces (46.5% area) of pressure-outlet 9.
  1120  1.4292e-04  1.3524e-02  6.8413e-03  1.5579e-16  0:00:00  880

 Reversed flow on 75 faces (53.3% area) of pressure-outlet 9.

  iter  continuity  x-velocity  y-velocity      energy     time/iter
  1121  1.4823e-04  1.3964e-02  6.8234e-03  1.5610e-16  0:00:00  879

 Reversed flow on 69 faces (50.8% area) of pressure-outlet 9.
  1122  1.5298e-04  1.4457e-02  6.9182e-03  1.6237e-16  0:00:00  878

 Reversed flow on 1 face (0.3% area) of pressure-inlet 7.

 Reversed flow on 59 faces (50.4% area) of pressure-outlet 9.
  1123  1.5249e-04  1.4972e-02  7.0102e-03  1.6495e-16  0:00:00  877

 Reversed flow on 2 faces (0.5% area) of pressure-inlet 7.

 Reversed flow on 67 faces (54.5% area) of pressure-outlet 9.
  1124  1.6248e-04  1.5426e-02  7.2448e-03  1.5920e-16  0:00:00  876

 Reversed flow on 11 faces (4.1% area) of pressure-inlet 7.

 Reversed flow on 60 faces (52.6% area) of pressure-outlet 9.
  1125  1.6065e-04  1.5736e-02  7.4775e-03  1.5311e-16  0:02:55  875

 Reversed flow on 14 faces (5.9% area) of pressure-inlet 7.

 Reversed flow on 60 faces (59.2% area) of pressure-outlet 9.
  1126  1.7544e-04  1.6043e-02  7.8078e-03  1.5867e-16  0:02:20  874

 Reversed flow on 17 faces (8.0% area) of pressure-inlet 7.

 Reversed flow on 90 faces (75.4% area) of pressure-outlet 9.
  1127  1.8389e-04  1.6451e-02  8.1912e-03  1.5395e-16  0:01:52  873

 Reversed flow on 18 faces (8.8% area) of pressure-inlet 7.

 Reversed flow on 73 faces (62.9% area) of pressure-outlet 9.
  1128  1.9151e-04  1.7301e-02  8.6192e-03  1.5401e-16  0:01:29  872

 Reversed flow on 20 faces (10.6% area) of pressure-inlet 7.

 Reversed flow on 47 faces (54.4% area) of pressure-outlet 9.
  1129  1.7474e-04  1.8349e-02  9.0815e-03  1.5517e-16  0:01:11  871

 Reversed flow on 21 faces (11.6% area) of pressure-inlet 7.

 Reversed flow on 84 faces (63.2% area) of pressure-outlet 9.
  1130  1.7352e-04  1.8767e-02  9.3754e-03  1.5621e-16  0:00:57  870

 Reversed flow on 20 faces (11.3% area) of pressure-inlet 7.

 Reversed flow on 54 faces (36.4% area) of pressure-outlet 9.
  1131  1.7931e-04  1.9147e-02  9.7695e-03  1.5448e-16  0:00:46  869

 Reversed flow on 20 faces (11.4% area) of pressure-inlet 7.

 Reversed flow on 36 faces (17.0% area) of pressure-outlet 9.

  iter  continuity  x-velocity  y-velocity      energy     time/iter
  1132  1.7331e-04  1.9388e-02  1.0083e-02  1.5313e-16  0:00:36  868

 Reversed flow on 20 faces (11.4% area) of pressure-inlet 7.

 Reversed flow on 65 faces (24.0% area) of pressure-outlet 9.
  1133  2.0812e-04  1.9029e-02  1.0391e-02  1.5288e-16  0:00:29  867

 Reversed flow on 18 faces (10.0% area) of pressure-inlet 7.

 Reversed flow on 54 faces (18.2% area) of pressure-outlet 9.
  1134  1.8669e-04  1.8421e-02  1.0586e-02  1.5587e-16  0:00:23  866

 Reversed flow on 17 faces (9.1% area) of pressure-inlet 7.

 Reversed flow on 56 faces (18.6% area) of pressure-outlet 9.
  1135  1.9543e-04  1.8128e-02  1.0674e-02  1.6560e-16  0:00:19  865

 Reversed flow on 17 faces (8.5% area) of pressure-inlet 7.

 Reversed flow on 63 faces (25.1% area) of pressure-outlet 9.
  1136  1.8716e-04  1.7625e-02  1.0709e-02  1.6751e-16  0:00:15  864

 Reversed flow on 17 faces (8.0% area) of pressure-inlet 7.

 Reversed flow on 69 faces (34.1% area) of pressure-outlet 9.
  1137  1.9002e-04  1.7073e-02  1.0807e-02  1.5857e-16  0:00:12  863

 Reversed flow on 16 faces (7.2% area) of pressure-inlet 7.

 Reversed flow on 67 faces (34.0% area) of pressure-outlet 9.
  1138  1.7901e-04  1.7243e-02  1.0683e-02  1.6073e-16  0:00:09  862

 Reversed flow on 14 faces (5.9% area) of pressure-inlet 7.

 Reversed flow on 72 faces (44.6% area) of pressure-outlet 9.
  1139  1.7066e-04  1.7612e-02  1.0431e-02  1.5511e-16  0:00:08  861

 Reversed flow on 13 faces (5.2% area) of pressure-inlet 7.

 Reversed flow on 76 faces (51.0% area) of pressure-outlet 9.
  1140  1.6282e-04  1.7221e-02  1.0351e-02  1.5783e-16  0:00:06  860

 Reversed flow on 11 faces (4.1% area) of pressure-inlet 7.

 Reversed flow on 68 faces (47.4% area) of pressure-outlet 9.
  1141  1.6819e-04  1.6911e-02  1.0189e-02  1.5949e-16  0:00:05  859

 Reversed flow on 10 faces (3.6% area) of pressure-inlet 7.

 Reversed flow on 66 faces (50.2% area) of pressure-outlet 9.
  1142  1.9169e-04  1.7014e-02  9.8419e-03  1.6179e-16  0:00:04  858

 Reversed flow on 8 faces (2.7% area) of pressure-inlet 7.

 Reversed flow on 64 faces (49.6% area) of pressure-outlet 9.

  iter  continuity  x-velocity  y-velocity      energy     time/iter
  1143  1.8334e-04  1.8749e-02  9.7167e-03  1.5651e-16  0:00:03  857

 Reversed flow on 11 faces (8.3% area) of pressure-inlet 7.

 Reversed flow on 63 faces (48.1% area) of pressure-outlet 9.
  1144  1.8001e-04  1.8286e-02  9.4224e-03  1.5681e-16  0:00:02  856

 Reversed flow on 11 faces (11.2% area) of pressure-inlet 7.

 Reversed flow on 74 faces (57.3% area) of pressure-outlet 9.
  1145  1.6341e-04  1.7200e-02  9.3633e-03  1.5372e-16  0:00:02  855

 Reversed flow on 11 faces (12.9% area) of pressure-inlet 7.

 Reversed flow on 70 faces (56.6% area) of pressure-outlet 9.
  1146  1.7253e-04  1.6813e-02  9.3269e-03  1.5466e-16  0:00:02  854

 Reversed flow on 8 faces (14.8% area) of pressure-inlet 7.

 Reversed flow on 54 faces (44.7% area) of pressure-outlet 9.
  1147  1.5798e-04  1.6554e-02  9.0464e-03  1.5139e-16  0:00:01  853

 Reversed flow on 9 faces (17.3% area) of pressure-inlet 7.

 Reversed flow on 74 faces (53.1% area) of pressure-outlet 9.
  1148  1.5392e-04  1.6512e-02  8.7369e-03  1.5291e-16  0:00:01  852

 Reversed flow on 9 faces (18.5% area) of pressure-inlet 7.

 Reversed flow on 32 faces (19.3% area) of pressure-outlet 9.
  1149  1.4794e-04  1.6283e-02  8.3875e-03  1.5581e-16  0:00:01  851

 Reversed flow on 10 faces (21.3% area) of pressure-inlet 7.

 Reversed flow on 36 faces (21.1% area) of pressure-outlet 9.
  1150  1.3632e-04  1.5916e-02  8.1502e-03  1.5323e-16  0:00:01  850

 Reversed flow on 10 faces (22.7% area) of pressure-inlet 7.

 Reversed flow on 38 faces (16.5% area) of pressure-outlet 9.
  1151  1.5323e-04  1.5211e-02  7.7636e-03  1.5286e-16  0:00:01  849

 Reversed flow on 11 faces (26.0% area) of pressure-inlet 7.

 Reversed flow on 59 faces (19.5% area) of pressure-outlet 9.
  1152  1.8720e-04  1.4437e-02  7.2553e-03  1.5363e-16  0:00:00  848

 Reversed flow on 12 faces (29.4% area) of pressure-inlet 7.

 Reversed flow on 28 faces (11.3% area) of pressure-outlet 9.
  1153  1.5779e-04  1.3583e-02  7.1252e-03  1.5924e-16  0:02:50  847

 Reversed flow on 13 faces (33.0% area) of pressure-inlet 7.

 Reversed flow on 49 faces (14.8% area) of pressure-outlet 9.

  iter  continuity  x-velocity  y-velocity      energy     time/iter
  1154  1.4941e-04  1.2594e-02  7.1991e-03  1.5804e-16  0:02:16  846

 Reversed flow on 14 faces (34.6% area) of pressure-inlet 7.

 Reversed flow on 50 faces (30.5% area) of pressure-outlet 9.
  1155  1.7725e-04  1.1943e-02  7.2542e-03  1.5366e-16  0:01:48  845

 Reversed flow on 15 faces (38.5% area) of pressure-inlet 7.

 Reversed flow on 76 faces (47.9% area) of pressure-outlet 9.
  1156  1.5710e-04  1.1346e-02  7.1825e-03  1.5876e-16  0:01:27  844

 Reversed flow on 16 faces (40.0% area) of pressure-inlet 7.

 Reversed flow on 86 faces (55.3% area) of pressure-outlet 9.
  1157  1.3081e-04  1.1309e-02  6.9130e-03  1.5853e-16  0:01:09  843

 Reversed flow on 16 faces (37.4% area) of pressure-inlet 7.

 Reversed flow on 77 faces (52.2% area) of pressure-outlet 9.
  1158  1.1986e-04  1.1654e-02  6.6029e-03  1.5319e-16  0:00:55  842

 Reversed flow on 18 faces (39.9% area) of pressure-inlet 7.

 Reversed flow on 81 faces (54.7% area) of pressure-outlet 9.
  1159  1.1294e-04  1.2182e-02  6.2613e-03  1.5497e-16  0:00:44  841

 Reversed flow on 19 faces (38.4% area) of pressure-inlet 7.

 Reversed flow on 83 faces (55.9% area) of pressure-outlet 9.
  1160  1.1379e-04  1.2684e-02  5.9446e-03  1.6186e-16  0:00:35  840

 Reversed flow on 20 faces (36.9% area) of pressure-inlet 7.

 Reversed flow on 76 faces (56.2% area) of pressure-outlet 9.
  1161  1.1065e-04  1.2981e-02  5.7708e-03  1.6014e-16  0:00:28  839

 Reversed flow on 26 faces (38.7% area) of pressure-inlet 7.

 Reversed flow on 54 faces (54.7% area) of pressure-outlet 9.
  1162  1.1662e-04  1.3221e-02  5.5802e-03  1.5974e-16  0:00:23  838

 Reversed flow on 33 faces (31.8% area) of pressure-inlet 7.

 Reversed flow on 71 faces (58.6% area) of pressure-outlet 9.
  1163  1.1925e-04  1.3280e-02  5.2724e-03  1.5386e-16  0:00:18  837

 Reversed flow on 32 faces (28.0% area) of pressure-inlet 7.

 Reversed flow on 66 faces (59.4% area) of pressure-outlet 9.
  1164  1.0711e-04  1.3253e-02  4.9405e-03  1.5209e-16  0:00:14  836

 Reversed flow on 31 faces (25.9% area) of pressure-inlet 7.

 Reversed flow on 66 faces (61.3% area) of pressure-outlet 9.

  iter  continuity  x-velocity  y-velocity      energy     time/iter
  1165  9.8210e-05  1.3207e-02  4.9022e-03  1.4993e-16  0:00:11  835

 Reversed flow on 30 faces (24.0% area) of pressure-inlet 7.

 Reversed flow on 86 faces (78.7% area) of pressure-outlet 9.
  1166  9.4843e-05  1.3011e-02  4.9857e-03  1.4943e-16  0:00:09  834

 Reversed flow on 30 faces (24.0% area) of pressure-inlet 7.

 Reversed flow on 85 faces (84.2% area) of pressure-outlet 9.
  1167  8.9789e-05  1.2758e-02  5.1381e-03  1.5371e-16  0:00:07  833

 Reversed flow on 30 faces (24.0% area) of pressure-inlet 7.

 Reversed flow on 79 faces (81.4% area) of pressure-outlet 9.
  1168  8.8195e-05  1.2434e-02  5.1034e-03  1.5007e-16  0:00:06  832

 Reversed flow on 30 faces (24.0% area) of pressure-inlet 7.

 Reversed flow on 79 faces (79.9% area) of pressure-outlet 9.
  1169  8.4820e-05  1.2108e-02  4.9281e-03  1.5180e-16  0:00:05  831

 Reversed flow on 31 faces (25.9% area) of pressure-inlet 7.

 Reversed flow on 77 faces (79.3% area) of pressure-outlet 9.
  1170  8.0678e-05  1.1857e-02  4.7597e-03  1.5558e-16  0:00:04  830

 Reversed flow on 30 faces (24.0% area) of pressure-inlet 7.

 Reversed flow on 78 faces (75.0% area) of pressure-outlet 9.
  1171  7.9082e-05  1.1541e-02  4.5706e-03  1.5206e-16  0:00:03  829

 Reversed flow on 30 faces (24.0% area) of pressure-inlet 7.

 Reversed flow on 77 faces (70.1% area) of pressure-outlet 9.
  1172  8.9031e-05  1.1248e-02  4.3619e-03  1.5106e-16  0:00:02  828

 Reversed flow on 31 faces (25.9% area) of pressure-inlet 7.

 Reversed flow on 66 faces (56.9% area) of pressure-outlet 9.
  1173  9.1641e-05  1.1066e-02  4.2508e-03  1.4887e-16  0:00:02  827

 Reversed flow on 31 faces (25.9% area) of pressure-inlet 7.

 Reversed flow on 61 faces (34.5% area) of pressure-outlet 9.
  1174  9.8891e-05  1.0883e-02  4.1017e-03  1.5121e-16  0:00:02  826

 Reversed flow on 30 faces (24.0% area) of pressure-inlet 7.

 Reversed flow on 64 faces (37.2% area) of pressure-outlet 9.
  1175  1.0367e-04  1.0637e-02  4.1450e-03  1.5474e-16  0:00:01  825

 Reversed flow on 30 faces (24.0% area) of pressure-inlet 7.

 Reversed flow on 77 faces (38.7% area) of pressure-outlet 9.

  iter  continuity  x-velocity  y-velocity      energy     time/iter
  1176  1.1650e-04  1.0505e-02  4.2515e-03  1.5547e-16  0:00:01  824

 Reversed flow on 29 faces (22.3% area) of pressure-inlet 7.

 Reversed flow on 73 faces (34.9% area) of pressure-outlet 9.
  1177  1.4826e-04  1.0723e-02  4.4472e-03  1.5352e-16  0:00:01  823

 Reversed flow on 29 faces (22.3% area) of pressure-inlet 7.

 Reversed flow on 60 faces (31.7% area) of pressure-outlet 9.
  1178  1.2860e-04  1.1183e-02  4.6980e-03  1.5563e-16  0:00:01  822

 Reversed flow on 29 faces (22.3% area) of pressure-inlet 7.

 Reversed flow on 67 faces (34.1% area) of pressure-outlet 9.
  1179  1.2680e-04  1.2174e-02  4.9656e-03  1.5543e-16  0:00:00  821

 Reversed flow on 29 faces (22.3% area) of pressure-inlet 7.

 Reversed flow on 82 faces (38.7% area) of pressure-outlet 9.
  1180  1.2635e-04  1.3143e-02  5.4438e-03  1.6069e-16  0:02:44  820

 Reversed flow on 28 faces (20.6% area) of pressure-inlet 7.

 Reversed flow on 76 faces (37.4% area) of pressure-outlet 9.
  1181  1.2976e-04  1.3904e-02  5.8358e-03  1.5708e-16  0:02:11  819

 Reversed flow on 28 faces (20.6% area) of pressure-inlet 7.

 Reversed flow on 72 faces (39.0% area) of pressure-outlet 9.
  1182  1.3937e-04  1.4848e-02  6.3572e-03  1.5937e-16  0:01:45  818

 Reversed flow on 28 faces (20.6% area) of pressure-inlet 7.

 Reversed flow on 74 faces (49.2% area) of pressure-outlet 9.
  1183  1.2118e-04  1.5803e-02  6.8565e-03  1.5719e-16  0:01:24  817

 Reversed flow on 28 faces (20.6% area) of pressure-inlet 7.

 Reversed flow on 69 faces (50.5% area) of pressure-outlet 9.
  1184  1.3472e-04  1.6394e-02  7.3603e-03  1.5640e-16  0:01:07  816

 Reversed flow on 27 faces (19.0% area) of pressure-inlet 7.

 Reversed flow on 68 faces (49.3% area) of pressure-outlet 9.
  1185  1.3819e-04  1.6947e-02  7.8370e-03  1.5854e-16  0:00:54  815

 Reversed flow on 27 faces (19.0% area) of pressure-inlet 7.

 Reversed flow on 75 faces (56.3% area) of pressure-outlet 9.
  1186  1.4086e-04  1.7277e-02  8.2241e-03  1.5526e-16  0:00:43  814

 Reversed flow on 27 faces (19.0% area) of pressure-inlet 7.

 Reversed flow on 73 faces (57.0% area) of pressure-outlet 9.

  iter  continuity  x-velocity  y-velocity      energy     time/iter
  1187  1.4320e-04  1.7385e-02  8.6197e-03  1.5702e-16  0:00:34  813

 Reversed flow on 26 faces (17.6% area) of pressure-inlet 7.

 Reversed flow on 68 faces (52.6% area) of pressure-outlet 9.
  1188  1.4073e-04  1.7389e-02  8.7653e-03  1.5111e-16  0:00:27  812

 Reversed flow on 26 faces (17.6% area) of pressure-inlet 7.

 Reversed flow on 70 faces (47.2% area) of pressure-outlet 9.
  1189  1.6464e-04  1.7350e-02  8.8662e-03  1.5125e-16  0:00:22  811

 Reversed flow on 26 faces (17.6% area) of pressure-inlet 7.

 Reversed flow on 63 faces (42.3% area) of pressure-outlet 9.
  1190  2.1104e-04  1.7637e-02  8.8663e-03  1.5589e-16  0:00:17  810

 Reversed flow on 25 faces (16.2% area) of pressure-inlet 7.

 Reversed flow on 59 faces (33.1% area) of pressure-outlet 9.
  1191  1.3677e-04  1.8521e-02  9.0176e-03  1.5422e-16  0:00:14  809

 Reversed flow on 25 faces (16.2% area) of pressure-inlet 7.

 Reversed flow on 38 faces (19.0% area) of pressure-outlet 9.
  1192  1.4433e-04  1.8147e-02  8.8195e-03  1.4965e-16  0:00:11  808

 Reversed flow on 25 faces (16.2% area) of pressure-inlet 7.

 Reversed flow on 51 faces (18.1% area) of pressure-outlet 9.
  1193  1.2561e-04  1.8184e-02  8.6760e-03  1.5651e-16  0:00:09  807

 Reversed flow on 24 faces (14.9% area) of pressure-inlet 7.

 Reversed flow on 48 faces (15.5% area) of pressure-outlet 9.
  1194  1.4254e-04  1.7630e-02  8.4843e-03  1.5210e-16  0:00:07  806

 Reversed flow on 23 faces (13.7% area) of pressure-inlet 7.

 Reversed flow on 46 faces (13.6% area) of pressure-outlet 9.
  1195  1.2844e-04  1.7433e-02  8.2726e-03  1.5292e-16  0:00:06  805

 Reversed flow on 23 faces (13.7% area) of pressure-inlet 7.

 Reversed flow on 37 faces (12.6% area) of pressure-outlet 9.
  1196  1.7373e-04  1.6695e-02  8.0962e-03  1.4970e-16  0:00:05  804

 Reversed flow on 22 faces (12.6% area) of pressure-inlet 7.

 Reversed flow on 53 faces (15.5% area) of pressure-outlet 9.
  1197  1.5344e-04  1.6488e-02  8.0355e-03  1.4938e-16  0:00:04  803

 Reversed flow on 22 faces (12.6% area) of pressure-inlet 7.

 Reversed flow on 48 faces (11.9% area) of pressure-outlet 9.

  iter  continuity  x-velocity  y-velocity      energy     time/iter
  1198  1.4641e-04  1.6683e-02  7.9346e-03  1.5625e-16  0:00:03  802

 Reversed flow on 21 faces (11.6% area) of pressure-inlet 7.

 Reversed flow on 46 faces (16.0% area) of pressure-outlet 9.
  1199  1.6287e-04  1.6537e-02  7.8799e-03  1.5032e-16  0:00:02  801

 Reversed flow on 21 faces (11.6% area) of pressure-inlet 7.

 Reversed flow on 61 faces (18.6% area) of pressure-outlet 9.
  1200  1.3135e-04  1.6281e-02  7.8192e-03  1.4904e-16  0:00:02  800

 Reversed flow on 21 faces (11.6% area) of pressure-inlet 7.

 Reversed flow on 61 faces (23.2% area) of pressure-outlet 9.
  1201  1.3223e-04  1.6197e-02  7.7532e-03  1.6101e-16  0:00:01  799

 Reversed flow on 20 faces (10.6% area) of pressure-inlet 7.

 Reversed flow on 72 faces (35.2% area) of pressure-outlet 9.
  1202  1.3362e-04  1.6089e-02  7.6990e-03  1.6112e-16  0:00:01  798

 Reversed flow on 20 faces (10.6% area) of pressure-inlet 7.

 Reversed flow on 71 faces (44.7% area) of pressure-outlet 9.
  1203  1.2845e-04  1.6040e-02  7.6632e-03  1.5755e-16  0:00:01  797

 Reversed flow on 20 faces (10.6% area) of pressure-inlet 7.

 Reversed flow on 82 faces (55.0% area) of pressure-outlet 9.
  1204  1.2976e-04  1.5939e-02  7.6246e-03  1.6218e-16  0:00:01  796

 Reversed flow on 20 faces (10.6% area) of pressure-inlet 7.

 Reversed flow on 71 faces (50.8% area) of pressure-outlet 9.
  1205  1.3450e-04  1.6063e-02  7.6496e-03  1.6109e-16  0:00:01  795

 Reversed flow on 20 faces (10.6% area) of pressure-inlet 7.

 Reversed flow on 69 faces (54.2% area) of pressure-outlet 9.
  1206  1.4644e-04  1.6180e-02  7.6641e-03  1.5820e-16  0:00:00  794

 Reversed flow on 21 faces (11.6% area) of pressure-inlet 7.

 Reversed flow on 66 faces (55.0% area) of pressure-outlet 9.
  1207  1.5916e-04  1.6239e-02  7.7800e-03  1.5900e-16  0:00:00  793

 Reversed flow on 21 faces (11.6% area) of pressure-inlet 7.

 Reversed flow on 81 faces (60.5% area) of pressure-outlet 9.
  1208  1.6327e-04  1.6323e-02  7.8681e-03  1.6204e-16  0:00:00  792

 Reversed flow on 20 faces (10.6% area) of pressure-inlet 7.

 Reversed flow on 85 faces (63.4% area) of pressure-outlet 9.

  iter  continuity  x-velocity  y-velocity      energy     time/iter
  1209  1.6614e-04  1.6435e-02  7.9812e-03  1.6140e-16  0:00:00  791

 Reversed flow on 20 faces (10.6% area) of pressure-inlet 7.

 Reversed flow on 76 faces (66.3% area) of pressure-outlet 9.
  1210  1.9159e-04  1.6777e-02  8.1939e-03  1.5407e-16  0:00:00  790

 Reversed flow on 20 faces (10.6% area) of pressure-inlet 7.

 Reversed flow on 73 faces (60.4% area) of pressure-outlet 9.
  1211  1.6238e-04  1.7566e-02  8.4220e-03  1.5428e-16  0:02:38  789

 Reversed flow on 21 faces (11.6% area) of pressure-inlet 7.

 Reversed flow on 60 faces (49.2% area) of pressure-outlet 9.
  1212  1.6170e-04  1.7848e-02  8.4140e-03  1.5072e-16  0:02:06  788

 Reversed flow on 21 faces (11.6% area) of pressure-inlet 7.

 Reversed flow on 64 faces (36.8% area) of pressure-outlet 9.
  1213  1.6722e-04  1.8248e-02  8.3006e-03  1.5316e-16  0:01:41  787

 Reversed flow on 21 faces (11.6% area) of pressure-inlet 7.

 Reversed flow on 33 faces (16.6% area) of pressure-outlet 9.
  1214  1.4753e-04  1.8533e-02  8.5107e-03  1.5305e-16  0:01:21  786

 Reversed flow on 20 faces (10.6% area) of pressure-inlet 7.

 Reversed flow on 51 faces (19.2% area) of pressure-outlet 9.
  1215  1.5349e-04  1.8328e-02  8.5740e-03  1.5321e-16  0:01:04  785

 Reversed flow on 20 faces (10.6% area) of pressure-inlet 7.

 Reversed flow on 43 faces (15.9% area) of pressure-outlet 9.
  1216  1.4017e-04  1.8336e-02  8.6300e-03  1.5551e-16  0:00:51  784

 Reversed flow on 20 faces (10.6% area) of pressure-inlet 7.

 Reversed flow on 47 faces (15.7% area) of pressure-outlet 9.
  1217  1.4904e-04  1.7706e-02  8.5472e-03  1.5212e-16  0:00:41  783

 Reversed flow on 20 faces (10.6% area) of pressure-inlet 7.

 Reversed flow on 33 faces (11.8% area) of pressure-outlet 9.
  1218  1.7950e-04  1.7263e-02  8.3599e-03  1.5785e-16  0:00:33  782

 Reversed flow on 19 faces (9.7% area) of pressure-inlet 7.

 Reversed flow on 45 faces (13.5% area) of pressure-outlet 9.
  1219  1.7000e-04  1.7159e-02  8.1196e-03  1.5061e-16  0:00:26  781

 Reversed flow on 19 faces (9.7% area) of pressure-inlet 7.

 Reversed flow on 48 faces (15.7% area) of pressure-outlet 9.

  iter  continuity  x-velocity  y-velocity      energy     time/iter
  1220  1.5471e-04  1.7108e-02  7.9818e-03  1.5103e-16  0:00:21  780

 Reversed flow on 19 faces (9.7% area) of pressure-inlet 7.

 Reversed flow on 42 faces (12.3% area) of pressure-outlet 9.
  1221  1.3690e-04  1.7337e-02  7.7117e-03  1.5270e-16  0:00:17  779

 Reversed flow on 18 faces (8.8% area) of pressure-inlet 7.

 Reversed flow on 40 faces (9.9% area) of pressure-outlet 9.
  1222  1.4142e-04  1.7982e-02  7.5884e-03  1.5767e-16  0:00:13  778

 Reversed flow on 18 faces (8.8% area) of pressure-inlet 7.

 Reversed flow on 62 faces (22.7% area) of pressure-outlet 9.
  1223  1.3034e-04  1.8613e-02  7.7336e-03  1.5785e-16  0:00:11  777

 Reversed flow on 17 faces (8.0% area) of pressure-inlet 7.

 Reversed flow on 78 faces (30.0% area) of pressure-outlet 9.
  1224  1.3497e-04  1.9046e-02  8.1863e-03  1.5425e-16  0:00:09  776

 Reversed flow on 17 faces (8.0% area) of pressure-inlet 7.

 Reversed flow on 51 faces (27.4% area) of pressure-outlet 9.
  1225  1.2448e-04  1.9463e-02  8.7724e-03  1.5131e-16  0:00:07  775

 Reversed flow on 17 faces (8.0% area) of pressure-inlet 7.

 Reversed flow on 67 faces (35.3% area) of pressure-outlet 9.
  1226  1.2665e-04  1.9632e-02  9.1587e-03  1.5434e-16  0:00:05  774

 Reversed flow on 17 faces (8.0% area) of pressure-inlet 7.

 Reversed flow on 74 faces (41.1% area) of pressure-outlet 9.
  1227  1.2820e-04  1.9653e-02  9.4801e-03  1.5130e-16  0:00:04  773

 Reversed flow on 17 faces (8.0% area) of pressure-inlet 7.

 Reversed flow on 70 faces (51.7% area) of pressure-outlet 9.
  1228  1.3727e-04  1.9506e-02  9.8668e-03  1.5136e-16  0:00:03  772

 Reversed flow on 16 faces (7.2% area) of pressure-inlet 7.

 Reversed flow on 68 faces (52.3% area) of pressure-outlet 9.
  1229  1.4352e-04  1.9430e-02  1.0088e-02  1.6344e-16  0:00:03  771

 Reversed flow on 16 faces (7.2% area) of pressure-inlet 7.

 Reversed flow on 60 faces (52.0% area) of pressure-outlet 9.
  1230  1.3708e-04  1.9513e-02  1.0280e-02  1.6184e-16  0:00:02  770

 Reversed flow on 15 faces (6.5% area) of pressure-inlet 7.

 Reversed flow on 58 faces (45.5% area) of pressure-outlet 9.

  iter  continuity  x-velocity  y-velocity      energy     time/iter
  1231  1.4634e-04  1.9501e-02  1.0442e-02  1.5789e-16  0:00:02  769

 Reversed flow on 15 faces (6.5% area) of pressure-inlet 7.

 Reversed flow on 63 faces (49.8% area) of pressure-outlet 9.
  1232  1.4721e-04  1.9792e-02  1.0395e-02  1.5433e-16  0:00:01  768

 Reversed flow on 14 faces (5.9% area) of pressure-inlet 7.

 Reversed flow on 53 faces (41.7% area) of pressure-outlet 9.
  1233  1.3958e-04  2.0224e-02  1.0266e-02  1.5661e-16  0:00:01  767

 Reversed flow on 13 faces (5.2% area) of pressure-inlet 7.

 Reversed flow on 27 faces (24.3% area) of pressure-outlet 9.
  1234  1.2986e-04  2.0630e-02  9.9204e-03  1.5691e-16  0:00:01  766

 Reversed flow on 13 faces (5.2% area) of pressure-inlet 7.

 Reversed flow on 29 faces (21.8% area) of pressure-outlet 9.
  1235  1.2915e-04  2.0833e-02  9.7281e-03  1.5443e-16  0:00:01  765

 Reversed flow on 12 faces (4.7% area) of pressure-inlet 7.

 Reversed flow on 26 faces (15.8% area) of pressure-outlet 9.
  1236  1.5108e-04  2.0437e-02  9.6472e-03  1.5840e-16  0:00:01  764

 Reversed flow on 10 faces (3.6% area) of pressure-inlet 7.

 Reversed flow on 38 faces (17.2% area) of pressure-outlet 9.
  1237  1.2861e-04  1.9850e-02  9.5083e-03  1.5451e-16  0:00:00  763

 Reversed flow on 9 faces (3.1% area) of pressure-inlet 7.

 Reversed flow on 31 faces (13.5% area) of pressure-outlet 9.
  1238  1.6650e-04  1.8837e-02  9.4299e-03  1.5358e-16  0:00:00  762

 Reversed flow on 8 faces (2.7% area) of pressure-inlet 7.

 Reversed flow on 42 faces (15.1% area) of pressure-outlet 9.
  1239  1.4235e-04  1.8106e-02  9.3173e-03  1.5616e-16  0:02:32  761

 Reversed flow on 7 faces (2.3% area) of pressure-inlet 7.

 Reversed flow on 34 faces (11.9% area) of pressure-outlet 9.
  1240  1.3214e-04  1.7233e-02  9.2101e-03  1.5539e-16  0:02:02  760

 Reversed flow on 7 faces (2.3% area) of pressure-inlet 7.

 Reversed flow on 47 faces (13.6% area) of pressure-outlet 9.
  1241  1.3374e-04  1.6608e-02  8.9684e-03  1.5525e-16  0:01:37  759

 Reversed flow on 6 faces (1.9% area) of pressure-inlet 7.

 Reversed flow on 31 faces (9.6% area) of pressure-outlet 9.

  iter  continuity  x-velocity  y-velocity      energy     time/iter
  1242  1.3958e-04  1.6248e-02  8.7426e-03  1.5721e-16  0:01:18  758

 Reversed flow on 5 faces (1.5% area) of pressure-inlet 7.

 Reversed flow on 44 faces (10.9% area) of pressure-outlet 9.
  1243  1.3337e-04  1.6299e-02  8.4788e-03  1.5792e-16  0:01:02  757

 Reversed flow on 5 faces (1.5% area) of pressure-inlet 7.

 Reversed flow on 35 faces (12.1% area) of pressure-outlet 9.
  1244  1.1995e-04  1.6574e-02  8.1934e-03  1.5293e-16  0:00:50  756

 Reversed flow on 5 faces (1.5% area) of pressure-inlet 7.

 Reversed flow on 36 faces (12.9% area) of pressure-outlet 9.
  1245  1.2190e-04  1.6736e-02  8.0558e-03  1.5343e-16  0:00:40  755

 Reversed flow on 5 faces (1.5% area) of pressure-inlet 7.

 Reversed flow on 57 faces (20.1% area) of pressure-outlet 9.
  1246  1.2398e-04  1.6668e-02  8.0283e-03  1.5062e-16  0:00:32  754

 Reversed flow on 6 faces (1.9% area) of pressure-inlet 7.

 Reversed flow on 40 faces (19.5% area) of pressure-outlet 9.
  1247  1.2964e-04  1.6606e-02  8.0223e-03  1.5152e-16  0:00:25  753

 Reversed flow on 6 faces (1.9% area) of pressure-inlet 7.

 Reversed flow on 50 faces (28.3% area) of pressure-outlet 9.
  1248  1.4087e-04  1.6364e-02  8.0403e-03  1.5475e-16  0:00:20  752

 Reversed flow on 6 faces (1.9% area) of pressure-inlet 7.

 Reversed flow on 48 faces (40.0% area) of pressure-outlet 9.
  1249  1.4651e-04  1.6292e-02  8.1001e-03  1.5973e-16  0:00:16  751

 Reversed flow on 7 faces (2.3% area) of pressure-inlet 7.

 Reversed flow on 69 faces (53.0% area) of pressure-outlet 9.
  1250  1.4555e-04  1.6321e-02  8.1113e-03  1.5997e-16  0:00:13  750

 Reversed flow on 7 faces (2.3% area) of pressure-inlet 7.

 Reversed flow on 62 faces (57.2% area) of pressure-outlet 9.
  1251  1.4758e-04  1.6267e-02  8.1595e-03  1.5186e-16  0:00:10  749

 Reversed flow on 8 faces (2.7% area) of pressure-inlet 7.

 Reversed flow on 73 faces (59.3% area) of pressure-outlet 9.
  1252  1.4544e-04  1.6388e-02  8.2721e-03  1.5422e-16  0:00:08  748

 Reversed flow on 8 faces (2.7% area) of pressure-inlet 7.

 Reversed flow on 66 faces (58.2% area) of pressure-outlet 9.

  iter  continuity  x-velocity  y-velocity      energy     time/iter
  1253  1.5947e-04  1.6646e-02  8.3415e-03  1.5586e-16  0:00:07  747

 Reversed flow on 7 faces (2.3% area) of pressure-inlet 7.

 Reversed flow on 70 faces (65.0% area) of pressure-outlet 9.
  1254  1.8180e-04  1.7177e-02  8.3906e-03  1.5427e-16  0:00:05  746

 Reversed flow on 7 faces (2.3% area) of pressure-inlet 7.

 Reversed flow on 64 faces (55.2% area) of pressure-outlet 9.
  1255  1.6224e-04  1.7861e-02  8.6335e-03  1.5651e-16  0:00:04  745

 Reversed flow on 7 faces (2.3% area) of pressure-inlet 7.

 Reversed flow on 70 faces (52.7% area) of pressure-outlet 9.
  1256  1.7398e-04  1.8061e-02  8.6603e-03  1.5297e-16  0:00:03  744

 Reversed flow on 7 faces (2.3% area) of pressure-inlet 7.

 Reversed flow on 41 faces (32.6% area) of pressure-outlet 9.
  1257  1.5716e-04  1.8352e-02  8.5139e-03  1.5207e-16  0:00:03  743

 Reversed flow on 6 faces (1.9% area) of pressure-inlet 7.

 Reversed flow on 37 faces (24.4% area) of pressure-outlet 9.
  1258  1.5596e-04  1.8249e-02  8.5276e-03  1.5464e-16  0:00:02  742

 Reversed flow on 6 faces (1.9% area) of pressure-inlet 7.

 Reversed flow on 22 faces (14.3% area) of pressure-outlet 9.
  1259  1.5775e-04  1.7709e-02  8.5264e-03  1.5529e-16  0:00:02  741

 Reversed flow on 5 faces (1.5% area) of pressure-inlet 7.

 Reversed flow on 35 faces (17.8% area) of pressure-outlet 9.
  1260  1.4971e-04  1.6967e-02  8.2169e-03  1.5104e-16  0:00:01  740

 Reversed flow on 5 faces (1.5% area) of pressure-inlet 7.

 Reversed flow on 21 faces (10.6% area) of pressure-outlet 9.
  1261  1.5286e-04  1.6137e-02  7.9380e-03  1.5153e-16  0:00:01  739

 Reversed flow on 4 faces (1.2% area) of pressure-inlet 7.

 Reversed flow on 33 faces (14.4% area) of pressure-outlet 9.
  1262  1.6197e-04  1.5666e-02  7.6097e-03  1.5091e-16  0:00:01  738

 Reversed flow on 4 faces (1.2% area) of pressure-inlet 7.

 Reversed flow on 25 faces (10.1% area) of pressure-outlet 9.
  1263  1.4829e-04  1.4583e-02  7.3588e-03  1.5000e-16  0:00:01  737

 Reversed flow on 3 faces (0.8% area) of pressure-inlet 7.

 Reversed flow on 28 faces (10.1% area) of pressure-outlet 9.

  iter  continuity  x-velocity  y-velocity      energy     time/iter
  1264  1.4442e-04  1.3798e-02  7.1081e-03  1.5601e-16  0:00:01  736

 Reversed flow on 3 faces (0.8% area) of pressure-inlet 7.

 Reversed flow on 21 faces (7.1% area) of pressure-outlet 9.
  1265  1.3918e-04  1.3709e-02  6.9577e-03  1.5145e-16  0:00:00  735

 Reversed flow on 3 faces (0.8% area) of pressure-inlet 7.

 Reversed flow on 22 faces (8.2% area) of pressure-outlet 9.
  1266  1.3362e-04  1.3787e-02  6.7056e-03  1.4642e-16  0:00:00  734

 Reversed flow on 3 faces (0.8% area) of pressure-inlet 7.

 Reversed flow on 22 faces (9.9% area) of pressure-outlet 9.
  1267  1.4126e-04  1.3884e-02  6.5937e-03  1.5340e-16  0:00:00  733

 Reversed flow on 3 faces (0.8% area) of pressure-inlet 7.

 Reversed flow on 19 faces (10.6% area) of pressure-outlet 9.
  1268  1.4611e-04  1.4115e-02  6.5177e-03  1.6439e-16  0:02:27  732

 Reversed flow on 3 faces (0.8% area) of pressure-inlet 7.

 Reversed flow on 58 faces (54.9% area) of pressure-outlet 9.
  1269  1.5425e-04  1.4239e-02  6.5281e-03  1.6227e-16  0:01:57  731

 Reversed flow on 2 faces (0.5% area) of pressure-inlet 7.

 Reversed flow on 57 faces (51.3% area) of pressure-outlet 9.
  1270  1.5218e-04  1.4260e-02  6.5234e-03  1.6219e-16  0:01:34  730

 Reversed flow on 2 faces (0.5% area) of pressure-inlet 7.

 Reversed flow on 75 faces (62.1% area) of pressure-outlet 9.
  1271  1.5558e-04  1.4164e-02  6.6260e-03  1.6073e-16  0:01:15  729

 Reversed flow on 2 faces (0.5% area) of pressure-inlet 7.

 Reversed flow on 76 faces (65.2% area) of pressure-outlet 9.
  1272  1.6238e-04  1.4134e-02  6.6955e-03  1.6090e-16  0:01:00  728

 Reversed flow on 2 faces (0.5% area) of pressure-inlet 7.

 Reversed flow on 84 faces (65.6% area) of pressure-outlet 9.
  1273  1.6107e-04  1.4036e-02  6.7231e-03  1.5580e-16  0:00:48  727

 Reversed flow on 14 faces (9.4% area) of pressure-inlet 7.

 Reversed flow on 72 faces (61.6% area) of pressure-outlet 9.
  1274  1.6852e-04  1.3795e-02  6.6464e-03  1.5988e-16  0:00:38  726

 Reversed flow on 20 faces (13.6% area) of pressure-inlet 7.

 Reversed flow on 66 faces (61.3% area) of pressure-outlet 9.

  iter  continuity  x-velocity  y-velocity      energy     time/iter
  1275  1.6901e-04  1.3838e-02  6.5631e-03  1.5484e-16  0:00:30  725

 Reversed flow on 23 faces (15.5% area) of pressure-inlet 7.

 Reversed flow on 88 faces (65.8% area) of pressure-outlet 9.
  1276  1.7377e-04  1.3880e-02  6.4256e-03  1.5373e-16  0:00:24  724

 Reversed flow on 26 faces (18.7% area) of pressure-inlet 7.

 Reversed flow on 53 faces (50.9% area) of pressure-outlet 9.
  1277  1.6678e-04  1.4084e-02  6.2447e-03  1.4834e-16  0:00:19  723

 Reversed flow on 28 faces (20.6% area) of pressure-inlet 7.

 Reversed flow on 76 faces (53.6% area) of pressure-outlet 9.
  1278  1.8064e-04  1.4220e-02  6.1820e-03  1.5783e-16  0:00:16  722

 Reversed flow on 28 faces (20.6% area) of pressure-inlet 7.

 Reversed flow on 47 faces (25.8% area) of pressure-outlet 9.
  1279  1.7042e-04  1.4192e-02  6.2008e-03  1.5729e-16  0:00:12  721

 Reversed flow on 29 faces (22.3% area) of pressure-inlet 7.

 Reversed flow on 47 faces (21.1% area) of pressure-outlet 9.
  1280  1.6076e-04  1.4041e-02  6.1308e-03  1.5737e-16  0:00:10  720

 Reversed flow on 29 faces (22.3% area) of pressure-inlet 7.

 Reversed flow on 45 faces (16.4% area) of pressure-outlet 9.
  1281  1.8384e-04  1.4010e-02  6.1926e-03  1.6800e-16  0:00:08  719

 Reversed flow on 28 faces (20.6% area) of pressure-inlet 7.

 Reversed flow on 41 faces (18.5% area) of pressure-outlet 9.
  1282  1.5595e-04  1.4300e-02  6.2438e-03  1.7013e-16  0:00:06  718

 Reversed flow on 28 faces (20.6% area) of pressure-inlet 7.

 Reversed flow on 56 faces (25.2% area) of pressure-outlet 9.
  1283  1.5979e-04  1.4560e-02  6.3670e-03  1.7036e-16  0:00:05  717

 Reversed flow on 27 faces (19.0% area) of pressure-inlet 7.

 Reversed flow on 68 faces (43.9% area) of pressure-outlet 9.
  1284  1.3735e-04  1.5084e-02  6.4084e-03  1.6484e-16  0:00:04  716

 Reversed flow on 26 faces (17.6% area) of pressure-inlet 7.

 Reversed flow on 77 faces (50.3% area) of pressure-outlet 9.
  1285  1.3224e-04  1.5781e-02  6.6621e-03  1.6700e-16  0:00:03  715

 Reversed flow on 27 faces (19.0% area) of pressure-inlet 7.

 Reversed flow on 70 faces (50.6% area) of pressure-outlet 9.

  iter  continuity  x-velocity  y-velocity      energy     time/iter
  1286  1.3531e-04  1.6400e-02  6.9441e-03  1.6296e-16  0:00:03  714

 Reversed flow on 26 faces (17.6% area) of pressure-inlet 7.

 Reversed flow on 53 faces (49.2% area) of pressure-outlet 9.
  1287  1.3938e-04  1.6844e-02  7.3054e-03  1.6129e-16  0:00:02  713

 Reversed flow on 27 faces (19.2% area) of pressure-inlet 7.

 Reversed flow on 74 faces (52.9% area) of pressure-outlet 9.
  1288  1.4124e-04  1.7295e-02  7.6067e-03  1.5896e-16  0:00:02  712

 Reversed flow on 28 faces (20.7% area) of pressure-inlet 7.

 Reversed flow on 65 faces (52.7% area) of pressure-outlet 9.
  1289  1.3290e-04  1.7772e-02  7.9220e-03  1.6107e-16  0:00:01  711

 Reversed flow on 27 faces (19.4% area) of pressure-inlet 7.

 Reversed flow on 80 faces (66.6% area) of pressure-outlet 9.
  1290  1.3261e-04  1.8056e-02  8.1260e-03  1.5604e-16  0:00:01  710

 Reversed flow on 27 faces (19.0% area) of pressure-inlet 7.

 Reversed flow on 84 faces (71.2% area) of pressure-outlet 9.
  1291  1.4999e-04  1.8278e-02  8.3890e-03  1.5437e-16  0:00:01  709

 Reversed flow on 28 faces (20.6% area) of pressure-inlet 7.

 Reversed flow on 68 faces (63.4% area) of pressure-outlet 9.
  1292  1.6839e-04  1.8513e-02  8.5819e-03  1.5159e-16  0:00:01  708

 Reversed flow on 29 faces (22.6% area) of pressure-inlet 7.

 Reversed flow on 69 faces (63.5% area) of pressure-outlet 9.
  1293  1.4651e-04  1.9014e-02  8.7766e-03  1.5623e-16  0:00:01  707

 Reversed flow on 29 faces (22.5% area) of pressure-inlet 7.

 Reversed flow on 47 faces (39.1% area) of pressure-outlet 9.
  1294  1.4070e-04  1.9220e-02  8.9185e-03  1.5217e-16  0:00:00  706

 Reversed flow on 27 faces (19.0% area) of pressure-inlet 7.

 Reversed flow on 45 faces (29.7% area) of pressure-outlet 9.
  1295  1.8340e-04  1.9340e-02  9.2198e-03  1.5512e-16  0:00:00  705

 Reversed flow on 26 faces (17.6% area) of pressure-inlet 7.

 Reversed flow on 30 faces (15.4% area) of pressure-outlet 9.
  1296  1.3792e-04  1.9231e-02  9.4082e-03  1.5484e-16  0:00:00  704

 Reversed flow on 25 faces (16.2% area) of pressure-inlet 7.

 Reversed flow on 31 faces (13.5% area) of pressure-outlet 9.

  iter  continuity  x-velocity  y-velocity      energy     time/iter
  1297  1.5601e-04  1.8829e-02  9.4417e-03  1.5102e-16  0:02:21  703

 Reversed flow on 24 faces (14.9% area) of pressure-inlet 7.

 Reversed flow on 31 faces (13.8% area) of pressure-outlet 9.
  1298  1.5056e-04  1.8540e-02  9.2032e-03  1.5209e-16  0:01:52  702

 Reversed flow on 23 faces (13.7% area) of pressure-inlet 7.

 Reversed flow on 37 faces (12.9% area) of pressure-outlet 9.
  1299  1.6451e-04  1.8288e-02  8.9331e-03  1.5526e-16  0:01:30  701

 Reversed flow on 22 faces (12.6% area) of pressure-inlet 7.

 Reversed flow on 43 faces (11.6% area) of pressure-outlet 9.
  1300  1.7127e-04  1.8079e-02  8.8930e-03  1.5095e-16  0:01:12  700

 Reversed flow on 22 faces (12.6% area) of pressure-inlet 7.

 Reversed flow on 31 faces (10.5% area) of pressure-outlet 9.
  1301  1.7361e-04  1.7927e-02  8.8610e-03  1.5115e-16  0:00:57  699

 Reversed flow on 21 faces (11.6% area) of pressure-inlet 7.

 Reversed flow on 27 faces (7.9% area) of pressure-outlet 9.
  1302  1.4797e-04  1.7986e-02  8.8191e-03  1.5376e-16  0:00:46  698

 Reversed flow on 20 faces (10.6% area) of pressure-inlet 7.

 Reversed flow on 36 faces (9.9% area) of pressure-outlet 9.
  1303  1.4721e-04  1.8142e-02  9.0029e-03  1.5628e-16  0:00:37  697

 Reversed flow on 20 faces (10.6% area) of pressure-inlet 7.

 Reversed flow on 48 faces (14.7% area) of pressure-outlet 9.
  1304  1.4352e-04  1.8247e-02  9.2942e-03  1.5305e-16  0:00:29  696

 Reversed flow on 19 faces (9.7% area) of pressure-inlet 7.

 Reversed flow on 32 faces (13.4% area) of pressure-outlet 9.
  1305  1.5303e-04  1.8225e-02  9.6103e-03  1.5274e-16  0:00:23  695

 Reversed flow on 19 faces (9.7% area) of pressure-inlet 7.

 Reversed flow on 52 faces (22.7% area) of pressure-outlet 9.
  1306  1.5537e-04  1.8201e-02  9.8098e-03  1.4758e-16  0:00:19  694

 Reversed flow on 19 faces (9.7% area) of pressure-inlet 7.

 Reversed flow on 58 faces (31.6% area) of pressure-outlet 9.
  1307  1.5274e-04  1.8200e-02  9.9393e-03  1.5607e-16  0:00:15  693

 Reversed flow on 18 faces (8.8% area) of pressure-inlet 7.

 Reversed flow on 71 faces (56.1% area) of pressure-outlet 9.

  iter  continuity  x-velocity  y-velocity      energy     time/iter
  1308  1.6331e-04  1.8249e-02  1.0013e-02  1.5889e-16  0:00:12  692

 Reversed flow on 18 faces (8.8% area) of pressure-inlet 7.

 Reversed flow on 88 faces (66.5% area) of pressure-outlet 9.
  1309  1.7236e-04  1.8408e-02  1.0167e-02  1.5563e-16  0:00:10  691

 Reversed flow on 18 faces (8.8% area) of pressure-inlet 7.

 Reversed flow on 84 faces (66.7% area) of pressure-outlet 9.
  1310  1.5295e-04  1.8597e-02  1.0185e-02  1.5814e-16  0:00:08  690

 Reversed flow on 18 faces (8.8% area) of pressure-inlet 7.

 Reversed flow on 71 faces (63.3% area) of pressure-outlet 9.
  1311  1.5673e-04  1.8699e-02  1.0203e-02  1.5955e-16  0:00:06  689

 Reversed flow on 19 faces (9.7% area) of pressure-inlet 7.

 Reversed flow on 78 faces (67.4% area) of pressure-outlet 9.
  1312  1.4808e-04  1.8981e-02  1.0116e-02  1.5610e-16  0:00:05  688

 Reversed flow on 19 faces (9.7% area) of pressure-inlet 7.

 Reversed flow on 73 faces (61.1% area) of pressure-outlet 9.
  1313  1.4600e-04  1.9123e-02  9.9799e-03  1.5755e-16  0:00:04  687

 Reversed flow on 18 faces (8.8% area) of pressure-inlet 7.

 Reversed flow on 55 faces (46.7% area) of pressure-outlet 9.
  1314  1.3878e-04  1.9370e-02  9.7870e-03  1.5311e-16  0:00:03  686

 Reversed flow on 18 faces (8.8% area) of pressure-inlet 7.

 Reversed flow on 70 faces (43.7% area) of pressure-outlet 9.
  1315  1.6522e-04  1.9571e-02  9.6141e-03  1.5529e-16  0:00:02  685

 Reversed flow on 18 faces (8.8% area) of pressure-inlet 7.

 Reversed flow on 40 faces (29.0% area) of pressure-outlet 9.
  1316  1.4708e-04  1.9589e-02  9.5053e-03  1.5392e-16  0:00:02  684

 Reversed flow on 17 faces (8.0% area) of pressure-inlet 7.

 Reversed flow on 33 faces (19.2% area) of pressure-outlet 9.
  1317  1.5483e-04  1.9377e-02  9.2702e-03  1.4945e-16  0:00:02  683

 Reversed flow on 17 faces (8.0% area) of pressure-inlet 7.

 Reversed flow on 33 faces (16.2% area) of pressure-outlet 9.
  1318  1.4826e-04  1.8795e-02  9.1411e-03  1.5108e-16  0:00:01  682

 Reversed flow on 15 faces (6.5% area) of pressure-inlet 7.

 Reversed flow on 24 faces (11.4% area) of pressure-outlet 9.

  iter  continuity  x-velocity  y-velocity      energy     time/iter
  1319  1.8041e-04  1.8166e-02  9.0633e-03  1.4980e-16  0:00:01  681

 Reversed flow on 13 faces (5.2% area) of pressure-inlet 7.

 Reversed flow on 40 faces (15.1% area) of pressure-outlet 9.
  1320  1.5845e-04  1.7693e-02  8.9664e-03  1.6282e-16  0:00:01  680

 Reversed flow on 11 faces (4.1% area) of pressure-inlet 7.

 Reversed flow on 22 faces (8.1% area) of pressure-outlet 9.
  1321  1.5634e-04  1.6673e-02  8.9026e-03  1.5276e-16  0:00:01  679

 Reversed flow on 10 faces (3.6% area) of pressure-inlet 7.

 Reversed flow on 37 faces (12.7% area) of pressure-outlet 9.
  1322  1.6625e-04  1.6367e-02  8.7603e-03  1.4616e-16  0:00:01  678

 Reversed flow on 11 faces (7.3% area) of pressure-inlet 7.

 Reversed flow on 21 faces (5.9% area) of pressure-outlet 9.
  1323  1.6092e-04  1.6363e-02  8.6137e-03  1.4962e-16  0:00:00  677

 Reversed flow on 11 faces (8.8% area) of pressure-inlet 7.

 Reversed flow on 34 faces (9.9% area) of pressure-outlet 9.
  1324  1.5181e-04  1.6172e-02  8.5393e-03  1.4803e-16  0:00:00  676

 Reversed flow on 11 faces (8.8% area) of pressure-inlet 7.

 Reversed flow on 14 faces (3.3% area) of pressure-outlet 9.
  1325  1.5355e-04  1.6225e-02  8.5298e-03  1.5067e-16  0:02:15  675

 Reversed flow on 11 faces (8.8% area) of pressure-inlet 7.

 Reversed flow on 47 faces (26.2% area) of pressure-outlet 9.
  1326  1.4905e-04  1.6301e-02  8.4652e-03  1.4490e-16  0:01:48  674

 Reversed flow on 15 faces (13.4% area) of pressure-inlet 7.

 Reversed flow on 64 faces (47.7% area) of pressure-outlet 9.
  1327  1.5943e-04  1.6370e-02  8.4259e-03  1.5624e-16  0:01:26  673

 Reversed flow on 18 faces (14.3% area) of pressure-inlet 7.

 Reversed flow on 67 faces (57.1% area) of pressure-outlet 9.
  1328  1.8134e-04  1.6373e-02  8.3736e-03  1.5221e-16  0:01:09  672

 Reversed flow on 23 faces (17.8% area) of pressure-inlet 7.

 Reversed flow on 78 faces (58.9% area) of pressure-outlet 9.
  1329  1.8977e-04  1.6753e-02  8.4629e-03  1.5524e-16  0:00:55  671

 Reversed flow on 29 faces (22.3% area) of pressure-inlet 7.

 Reversed flow on 82 faces (57.9% area) of pressure-outlet 9.

  iter  continuity  x-velocity  y-velocity      energy     time/iter
  1330  1.7458e-04  1.6473e-02  8.4192e-03  1.5809e-16  0:00:44  670

 Reversed flow on 28 faces (20.6% area) of pressure-inlet 7.

 Reversed flow on 84 faces (62.2% area) of pressure-outlet 9.
  1331  1.6538e-04  1.6463e-02  8.4866e-03  1.5544e-16  0:00:35  669

 Reversed flow on 26 faces (19.0% area) of pressure-inlet 7.

 Reversed flow on 82 faces (63.0% area) of pressure-outlet 9.
  1332  1.6154e-04  1.6602e-02  8.5899e-03  1.5455e-16  0:00:28  668

 Reversed flow on 27 faces (20.7% area) of pressure-inlet 7.

 Reversed flow on 73 faces (62.1% area) of pressure-outlet 9.
  1333  1.6601e-04  1.6716e-02  8.7181e-03  1.6081e-16  0:00:22  667

 Reversed flow on 26 faces (20.7% area) of pressure-inlet 7.

 Reversed flow on 73 faces (67.3% area) of pressure-outlet 9.
  1334  1.6982e-04  1.6883e-02  8.8494e-03  1.5951e-16  0:00:18  666

 Reversed flow on 26 faces (21.9% area) of pressure-inlet 7.

 Reversed flow on 90 faces (82.7% area) of pressure-outlet 9.
  1335  1.8287e-04  1.7448e-02  8.9162e-03  1.5711e-16  0:00:14  665

 Reversed flow on 26 faces (21.9% area) of pressure-inlet 7.

 Reversed flow on 77 faces (81.8% area) of pressure-outlet 9.
  1336  1.7026e-04  1.7852e-02  9.0586e-03  1.5803e-16  0:00:11  664

 Reversed flow on 26 faces (23.2% area) of pressure-inlet 7.

 Reversed flow on 76 faces (76.4% area) of pressure-outlet 9.
  1337  1.7558e-04  1.8332e-02  9.1948e-03  1.5343e-16  0:00:09  663

 Reversed flow on 27 faces (25.7% area) of pressure-inlet 7.

 Reversed flow on 83 faces (73.2% area) of pressure-outlet 9.
  1338  1.9267e-04  1.8976e-02  9.3935e-03  1.6058e-16  0:00:07  662

 Reversed flow on 27 faces (26.2% area) of pressure-inlet 7.

 Reversed flow on 67 faces (63.1% area) of pressure-outlet 9.
  1339  1.8755e-04  1.9445e-02  9.7238e-03  1.5862e-16  0:00:06  661

 Reversed flow on 26 faces (27.2% area) of pressure-inlet 7.

 Reversed flow on 61 faces (49.6% area) of pressure-outlet 9.
  1340  2.3810e-04  1.9382e-02  9.9215e-03  1.5434e-16  0:00:05  660

 Reversed flow on 25 faces (28.8% area) of pressure-inlet 7.

 Reversed flow on 64 faces (35.2% area) of pressure-outlet 9.

  iter  continuity  x-velocity  y-velocity      energy     time/iter
  1341  1.9599e-04  2.0009e-02  1.0115e-02  1.6051e-16  0:00:04  659

 Reversed flow on 24 faces (30.6% area) of pressure-inlet 7.

 Reversed flow on 40 faces (21.5% area) of pressure-outlet 9.
  1342  1.9742e-04  1.8961e-02  1.0258e-02  1.6224e-16  0:00:03  658

 Reversed flow on 21 faces (29.0% area) of pressure-inlet 7.

 Reversed flow on 51 faces (14.7% area) of pressure-outlet 9.
  1343  1.8788e-04  1.7640e-02  1.0283e-02  1.6428e-16  0:00:02  657

 Reversed flow on 18 faces (30.7% area) of pressure-inlet 7.

 Reversed flow on 57 faces (23.8% area) of pressure-outlet 9.
  1344  1.7792e-04  1.6684e-02  1.0480e-02  1.6139e-16  0:00:02  656

 Reversed flow on 18 faces (32.8% area) of pressure-inlet 7.

 Reversed flow on 58 faces (28.8% area) of pressure-outlet 9.
  1345  2.0063e-04  1.5764e-02  1.0515e-02  1.6292e-16  0:00:02  655

 Reversed flow on 17 faces (31.8% area) of pressure-inlet 7.

 Reversed flow on 70 faces (37.2% area) of pressure-outlet 9.
  1346  2.2589e-04  1.5206e-02  1.0336e-02  1.5506e-16  0:00:01  654

 Reversed flow on 17 faces (33.9% area) of pressure-inlet 7.

 Reversed flow on 65 faces (44.6% area) of pressure-outlet 9.
  1347  1.7046e-04  1.4960e-02  1.0138e-02  1.5837e-16  0:00:01  653

 Reversed flow on 16 faces (32.8% area) of pressure-inlet 7.

 Reversed flow on 79 faces (52.9% area) of pressure-outlet 9.
  1348  1.5615e-04  1.4759e-02  9.9050e-03  1.6986e-16  0:00:01  652

 Reversed flow on 16 faces (35.0% area) of pressure-inlet 7.

 Reversed flow on 68 faces (48.3% area) of pressure-outlet 9.
  1349  1.6133e-04  1.4529e-02  9.6859e-03  1.6771e-16  0:00:01  651

 Reversed flow on 15 faces (33.8% area) of pressure-inlet 7.

 Reversed flow on 68 faces (50.0% area) of pressure-outlet 9.
  1350  1.6465e-04  1.4495e-02  9.4990e-03  1.6298e-16  0:00:00  650

 Reversed flow on 15 faces (33.8% area) of pressure-inlet 7.

 Reversed flow on 69 faces (48.5% area) of pressure-outlet 9.
  1351  1.4978e-04  1.4424e-02  9.2500e-03  1.7109e-16  0:00:00  649

 Reversed flow on 15 faces (36.0% area) of pressure-inlet 7.

 Reversed flow on 58 faces (43.3% area) of pressure-outlet 9.

  iter  continuity  x-velocity  y-velocity      energy     time/iter
  1352  1.4379e-04  1.4078e-02  9.1600e-03  1.7264e-16  0:00:00  648

 Reversed flow on 14 faces (34.6% area) of pressure-inlet 7.

 Reversed flow on 54 faces (47.8% area) of pressure-outlet 9.
  1353  1.4861e-04  1.3924e-02  8.9693e-03  1.6646e-16  0:00:00  647

 Reversed flow on 14 faces (36.9% area) of pressure-inlet 7.

 Reversed flow on 83 faces (63.8% area) of pressure-outlet 9.
  1354  1.4776e-04  1.3714e-02  8.7058e-03  1.6666e-16  0:00:00  646

 Reversed flow on 13 faces (35.3% area) of pressure-inlet 7.

 Reversed flow on 50 faces (40.4% area) of pressure-outlet 9.
  1355  1.2211e-04  1.3692e-02  8.4093e-03  1.5339e-16  0:00:00  645

 Reversed flow on 14 faces (39.4% area) of pressure-inlet 7.

 Reversed flow on 56 faces (42.3% area) of pressure-outlet 9.
  1356  1.3079e-04  1.3720e-02  7.9810e-03  1.5558e-16  0:02:09  644

 Reversed flow on 14 faces (42.1% area) of pressure-inlet 7.

 Reversed flow on 47 faces (28.3% area) of pressure-outlet 9.
  1357  1.2886e-04  1.3810e-02  7.4972e-03  1.5145e-16  0:01:43  643

 Reversed flow on 13 faces (40.2% area) of pressure-inlet 7.

 Reversed flow on 36 faces (19.5% area) of pressure-outlet 9.
  1358  1.1614e-04  1.3571e-02  7.1764e-03  1.5554e-16  0:01:22  642

 Reversed flow on 14 faces (45.0% area) of pressure-inlet 7.

 Reversed flow on 33 faces (12.3% area) of pressure-outlet 9.
  1359  1.1992e-04  1.3151e-02  6.9020e-03  1.5456e-16  0:01:06  641

 Reversed flow on 14 faces (45.0% area) of pressure-inlet 7.

 Reversed flow on 49 faces (15.9% area) of pressure-outlet 9.
  1360  1.1724e-04  1.2582e-02  6.7881e-03  1.5025e-16  0:00:52  640

 Reversed flow on 14 faces (48.0% area) of pressure-inlet 7.

 Reversed flow on 34 faces (22.9% area) of pressure-outlet 9.
  1361  1.6378e-04  1.2012e-02  6.7514e-03  1.5139e-16  0:00:42  639

 Reversed flow on 15 faces (49.7% area) of pressure-inlet 7.

 Reversed flow on 47 faces (36.3% area) of pressure-outlet 9.
  1362  1.6558e-04  1.1622e-02  6.7209e-03  1.5251e-16  0:00:33  638

 Reversed flow on 19 faces (57.0% area) of pressure-inlet 7.

 Reversed flow on 34 faces (38.4% area) of pressure-outlet 9.

  iter  continuity  x-velocity  y-velocity      energy     time/iter
  1363  1.4269e-04  1.1393e-02  6.6799e-03  1.5088e-16  0:00:27  637

 Reversed flow on 21 faces (63.8% area) of pressure-inlet 7.

 Reversed flow on 60 faces (49.4% area) of pressure-outlet 9.
  1364  1.1776e-04  1.1345e-02  6.6267e-03  1.5266e-16  0:00:21  636

 Reversed flow on 22 faces (65.2% area) of pressure-inlet 7.

 Reversed flow on 59 faces (48.8% area) of pressure-outlet 9.
  1365  1.1985e-04  1.1584e-02  6.5504e-03  1.4970e-16  0:00:17  635

 Reversed flow on 22 faces (62.4% area) of pressure-inlet 7.

 Reversed flow on 56 faces (50.6% area) of pressure-outlet 9.
  1366  1.1429e-04  1.1963e-02  6.4686e-03  1.5258e-16  0:00:14  634

 Reversed flow on 23 faces (60.3% area) of pressure-inlet 7.

 Reversed flow on 50 faces (46.6% area) of pressure-outlet 9.
  1367  1.1335e-04  1.2415e-02  6.3709e-03  1.5590e-16  0:00:11  633

 Reversed flow on 22 faces (46.1% area) of pressure-inlet 7.

 Reversed flow on 52 faces (51.9% area) of pressure-outlet 9.
  1368  1.2288e-04  1.2826e-02  6.2277e-03  1.6072e-16  0:00:09  632

 Reversed flow on 22 faces (36.1% area) of pressure-inlet 7.

 Reversed flow on 54 faces (57.4% area) of pressure-outlet 9.
  1369  1.1742e-04  1.3129e-02  6.0700e-03  1.5982e-16  0:00:07  631

 Reversed flow on 36 faces (37.5% area) of pressure-inlet 7.

 Reversed flow on 46 faces (58.2% area) of pressure-outlet 9.
  1370  1.2462e-04  1.3408e-02  5.9015e-03  1.5805e-16  0:00:06  630

 Reversed flow on 35 faces (34.9% area) of pressure-inlet 7.

 Reversed flow on 54 faces (62.9% area) of pressure-outlet 9.
  1371  1.1540e-04  1.3576e-02  5.5795e-03  1.6348e-16  0:00:04  629

 Reversed flow on 33 faces (30.1% area) of pressure-inlet 7.

 Reversed flow on 53 faces (66.7% area) of pressure-outlet 9.
  1372  1.0846e-04  1.3697e-02  5.4273e-03  1.5169e-16  0:00:04  628

 Reversed flow on 32 faces (28.0% area) of pressure-inlet 7.

 Reversed flow on 49 faces (68.9% area) of pressure-outlet 9.
  1373  1.0043e-04  1.3649e-02  5.4232e-03  1.5776e-16  0:00:03  627

 Reversed flow on 31 faces (25.9% area) of pressure-inlet 7.

 Reversed flow on 59 faces (77.3% area) of pressure-outlet 9.

  iter  continuity  x-velocity  y-velocity      energy     time/iter
  1374  9.5329e-05  1.3550e-02  5.5253e-03  1.5740e-16  0:00:02  626

 Reversed flow on 31 faces (25.9% area) of pressure-inlet 7.

 Reversed flow on 63 faces (79.2% area) of pressure-outlet 9.
  1375  8.9907e-05  1.3261e-02  5.5719e-03  1.5799e-16  0:00:02  625

 Reversed flow on 30 faces (24.0% area) of pressure-inlet 7.

 Reversed flow on 61 faces (77.4% area) of pressure-outlet 9.
  1376  9.0975e-05  1.2869e-02  5.5489e-03  1.5233e-16  0:00:01  624

 Reversed flow on 30 faces (24.0% area) of pressure-inlet 7.

 Reversed flow on 65 faces (79.2% area) of pressure-outlet 9.
  1377  8.5500e-05  1.2536e-02  5.4573e-03  1.4652e-16  0:00:01  623

 Reversed flow on 30 faces (24.0% area) of pressure-inlet 7.

 Reversed flow on 45 faces (68.1% area) of pressure-outlet 9.
  1378  8.3557e-05  1.2182e-02  5.3088e-03  1.4723e-16  0:00:01  622

 Reversed flow on 30 faces (24.0% area) of pressure-inlet 7.

 Reversed flow on 55 faces (67.4% area) of pressure-outlet 9.
  1379  8.2903e-05  1.1943e-02  5.1402e-03  1.4408e-16  0:00:01  621

 Reversed flow on 31 faces (25.9% area) of pressure-inlet 7.

 Reversed flow on 38 faces (56.4% area) of pressure-outlet 9.
  1380  8.6869e-05  1.1763e-02  4.9766e-03  1.4566e-16  0:00:01  620

 Reversed flow on 30 faces (24.0% area) of pressure-inlet 7.

 Reversed flow on 45 faces (55.5% area) of pressure-outlet 9.
  1381  9.3885e-05  1.1662e-02  4.8650e-03  1.5200e-16  0:00:00  619

 Reversed flow on 30 faces (24.0% area) of pressure-inlet 7.

 Reversed flow on 37 faces (36.8% area) of pressure-outlet 9.
  1382  1.0112e-04  1.1622e-02  4.7002e-03  1.5276e-16  0:00:00  618

 Reversed flow on 30 faces (24.0% area) of pressure-inlet 7.

 Reversed flow on 36 faces (26.1% area) of pressure-outlet 9.
  1383  1.0310e-04  1.1541e-02  4.7621e-03  1.5106e-16  0:02:04  617

 Reversed flow on 30 faces (24.0% area) of pressure-inlet 7.

 Reversed flow on 34 faces (22.3% area) of pressure-outlet 9.
  1384  1.2049e-04  1.1739e-02  5.0419e-03  1.4787e-16  0:01:39  616

 Reversed flow on 30 faces (24.0% area) of pressure-inlet 7.

 Reversed flow on 42 faces (21.0% area) of pressure-outlet 9.

  iter  continuity  x-velocity  y-velocity      energy     time/iter
  1385  1.6066e-04  1.2209e-02  5.3455e-03  1.5456e-16  0:01:19  615

 Reversed flow on 29 faces (22.3% area) of pressure-inlet 7.

 Reversed flow on 47 faces (17.5% area) of pressure-outlet 9.
  1386  1.3273e-04  1.2842e-02  5.6290e-03  1.5286e-16  0:01:03  614

 Reversed flow on 29 faces (22.3% area) of pressure-inlet 7.

 Reversed flow on 46 faces (15.6% area) of pressure-outlet 9.
  1387  1.2042e-04  1.3567e-02  5.9867e-03  1.5468e-16  0:00:50  613

 Reversed flow on 29 faces (22.3% area) of pressure-inlet 7.

 Reversed flow on 53 faces (15.2% area) of pressure-outlet 9.
  1388  1.2737e-04  1.4322e-02  6.3390e-03  1.5163e-16  0:00:40  612

 Reversed flow on 29 faces (22.3% area) of pressure-inlet 7.

 Reversed flow on 52 faces (13.3% area) of pressure-outlet 9.
[...]

 Reversed flow on 33 faces (30.1% area) of pressure-inlet 7.

 Reversed flow on 80 faces (82.4% area) of pressure-outlet 9.
  1912  9.9347e-05  1.1048e-02  4.5059e-03  1.5695e-16  0:00:01   88

 Reversed flow on 33 faces (30.1% area) of pressure-inlet 7.

 Reversed flow on 69 faces (82.4% area) of pressure-outlet 9.

  iter  continuity  x-velocity  y-velocity      energy     time/iter
  1913  8.9603e-05  1.0653e-02  4.3638e-03  1.6188e-16  0:00:01   87

 Reversed flow on 33 faces (30.1% area) of pressure-inlet 7.

 Reversed flow on 91 faces (85.9% area) of pressure-outlet 9.
  1914  7.7735e-05  1.0257e-02  4.0439e-03  1.5774e-16  0:00:01   86

 Reversed flow on 33 faces (30.1% area) of pressure-inlet 7.

 Reversed flow on 92 faces (84.6% area) of pressure-outlet 9.
  1915  7.3776e-05  9.8975e-03  3.7045e-03  1.5377e-16  0:00:01   85

 Reversed flow on 32 faces (28.0% area) of pressure-inlet 7.

 Reversed flow on 74 faces (79.0% area) of pressure-outlet 9.
  1916  7.5264e-05  9.4362e-03  3.5229e-03  1.5214e-16  0:00:00   84

 Reversed flow on 33 faces (30.3% area) of pressure-inlet 7.

 Reversed flow on 75 faces (69.3% area) of pressure-outlet 9.
  1917  7.8994e-05  8.7835e-03  3.3509e-03  1.5295e-16  0:00:00   83

 Reversed flow on 33 faces (30.3% area) of pressure-inlet 7.

 Reversed flow on 62 faces (64.7% area) of pressure-outlet 9.
  1918  7.3455e-05  8.0110e-03  3.0895e-03  1.5511e-16  0:00:00   82

 Reversed flow on 32 faces (28.0% area) of pressure-inlet 7.

 Reversed flow on 68 faces (60.7% area) of pressure-outlet 9.
  1919  7.8722e-05  7.3491e-03  2.8577e-03  1.5479e-16  0:00:00   81

 Reversed flow on 32 faces (28.0% area) of pressure-inlet 7.

 Reversed flow on 66 faces (50.2% area) of pressure-outlet 9.
  1920  9.1052e-05  6.9478e-03  2.7308e-03  1.5923e-16  0:00:00   80

 Reversed flow on 32 faces (28.0% area) of pressure-inlet 7.

 Reversed flow on 73 faces (38.0% area) of pressure-outlet 9.
  1921  1.1915e-04  6.8498e-03  2.8622e-03  1.5800e-16  0:00:00   79

 Reversed flow on 32 faces (28.0% area) of pressure-inlet 7.

 Reversed flow on 83 faces (40.7% area) of pressure-outlet 9.
  1922  1.3611e-04  7.0908e-03  3.1123e-03  1.6002e-16  0:00:00   78

 Reversed flow on 32 faces (28.0% area) of pressure-inlet 7.

 Reversed flow on 63 faces (33.4% area) of pressure-outlet 9.
  1923  1.3861e-04  7.6962e-03  3.4121e-03  1.5562e-16  0:00:00   77

 Reversed flow on 31 faces (25.9% area) of pressure-inlet 7.

 Reversed flow on 60 faces (33.0% area) of pressure-outlet 9.

  iter  continuity  x-velocity  y-velocity      energy     time/iter
  1924  1.1393e-04  8.5815e-03  3.6660e-03  1.5400e-16  0:00:00   76

 Reversed flow on 31 faces (25.9% area) of pressure-inlet 7.

 Reversed flow on 80 faces (41.8% area) of pressure-outlet 9.
  1925  1.1115e-04  9.6707e-03  4.0429e-03  1.5366e-16  0:00:00   75

 Reversed flow on 31 faces (25.9% area) of pressure-inlet 7.

 Reversed flow on 77 faces (42.2% area) of pressure-outlet 9.
  1926  1.1081e-04  1.0824e-02  4.4785e-03  1.5376e-16  0:00:00   74

 Reversed flow on 31 faces (25.9% area) of pressure-inlet 7.

 Reversed flow on 81 faces (50.1% area) of pressure-outlet 9.
  1927  1.3128e-04  1.1969e-02  5.0580e-03  1.5800e-16  0:00:00   73

 Reversed flow on 30 faces (24.0% area) of pressure-inlet 7.

 Reversed flow on 72 faces (47.4% area) of pressure-outlet 9.
  1928  1.5375e-04  1.3021e-02  5.7150e-03  1.5526e-16  0:00:14   72

 Reversed flow on 30 faces (24.0% area) of pressure-inlet 7.

 Reversed flow on 76 faces (53.7% area) of pressure-outlet 9.
  1929  1.7682e-04  1.3944e-02  6.4435e-03  1.5136e-16  0:00:11   71

 Reversed flow on 30 faces (24.0% area) of pressure-inlet 7.

 Reversed flow on 80 faces (57.1% area) of pressure-outlet 9.
  1930  1.4608e-04  1.4621e-02  6.9201e-03  1.5706e-16  0:00:09   70

 Reversed flow on 29 faces (22.3% area) of pressure-inlet 7.

 Reversed flow on 79 faces (55.2% area) of pressure-outlet 9.
  1931  1.3574e-04  1.5300e-02  7.3452e-03  1.5148e-16  0:00:07   69

 Reversed flow on 29 faces (22.3% area) of pressure-inlet 7.

 Reversed flow on 70 faces (37.9% area) of pressure-outlet 9.
  1932  1.3852e-04  1.5784e-02  7.6225e-03  1.5453e-16  0:00:06   68

 Reversed flow on 29 faces (22.3% area) of pressure-inlet 7.

 Reversed flow on 54 faces (35.0% area) of pressure-outlet 9.
  1933  1.5763e-04  1.5869e-02  7.9756e-03  1.5656e-16  0:00:04   67

 Reversed flow on 28 faces (20.6% area) of pressure-inlet 7.

 Reversed flow on 64 faces (34.5% area) of pressure-outlet 9.
  1934  1.5041e-04  1.6218e-02  8.1774e-03  1.5858e-16  0:00:03   66

 Reversed flow on 28 faces (20.6% area) of pressure-inlet 7.

 Reversed flow on 68 faces (24.0% area) of pressure-outlet 9.

  iter  continuity  x-velocity  y-velocity      energy     time/iter
  1935  1.5002e-04  1.6152e-02  8.3907e-03  1.5722e-16  0:00:03   65

 Reversed flow on 27 faces (19.0% area) of pressure-inlet 7.

 Reversed flow on 66 faces (28.6% area) of pressure-outlet 9.
  1936  1.4723e-04  1.5946e-02  8.4864e-03  1.6040e-16  0:00:02   64

 Reversed flow on 27 faces (19.0% area) of pressure-inlet 7.

 Reversed flow on 55 faces (25.5% area) of pressure-outlet 9.
  1937  1.8847e-04  1.5767e-02  8.6413e-03  1.5489e-16  0:00:02   63

 Reversed flow on 26 faces (17.6% area) of pressure-inlet 7.

 Reversed flow on 75 faces (31.7% area) of pressure-outlet 9.
  1938  1.6167e-04  1.6012e-02  8.7219e-03  1.6065e-16  0:00:01   62

 Reversed flow on 26 faces (17.6% area) of pressure-inlet 7.

 Reversed flow on 73 faces (32.1% area) of pressure-outlet 9.
  1939  1.6460e-04  1.6217e-02  8.7354e-03  1.5681e-16  0:00:01   61

 Reversed flow on 25 faces (16.2% area) of pressure-inlet 7.

 Reversed flow on 73 faces (36.8% area) of pressure-outlet 9.
  1940  1.5613e-04  1.6687e-02  8.7392e-03  1.5752e-16  0:00:01   60

 Reversed flow on 25 faces (16.2% area) of pressure-inlet 7.

 Reversed flow on 79 faces (48.9% area) of pressure-outlet 9.
  1941  1.6529e-04  1.6961e-02  8.8236e-03  1.5692e-16  0:00:01   59

 Reversed flow on 25 faces (16.2% area) of pressure-inlet 7.

 Reversed flow on 62 faces (46.8% area) of pressure-outlet 9.
  1942  1.5935e-04  1.7508e-02  9.0296e-03  1.5372e-16  0:00:01   58

 Reversed flow on 25 faces (16.2% area) of pressure-inlet 7.

 Reversed flow on 64 faces (50.1% area) of pressure-outlet 9.
  1943  1.6257e-04  1.7346e-02  9.1003e-03  1.6316e-16  0:00:00   57

 Reversed flow on 25 faces (16.2% area) of pressure-inlet 7.

 Reversed flow on 68 faces (51.5% area) of pressure-outlet 9.
  1944  1.6798e-04  1.7298e-02  9.3914e-03  1.5665e-16  0:00:00   56

 Reversed flow on 24 faces (14.9% area) of pressure-inlet 7.

 Reversed flow on 78 faces (56.4% area) of pressure-outlet 9.
  1945  1.8748e-04  1.7329e-02  9.5808e-03  1.5793e-16  0:00:00   55

 Reversed flow on 24 faces (14.9% area) of pressure-inlet 7.

 Reversed flow on 81 faces (59.1% area) of pressure-outlet 9.

  iter  continuity  x-velocity  y-velocity      energy     time/iter
  1946  1.8089e-04  1.7667e-02  9.9204e-03  1.5981e-16  0:00:00   54

 Reversed flow on 24 faces (14.9% area) of pressure-inlet 7.

 Reversed flow on 84 faces (60.6% area) of pressure-outlet 9.
  1947  2.0741e-04  1.7590e-02  1.0088e-02  1.5949e-16  0:00:00   53

 Reversed flow on 24 faces (14.9% area) of pressure-inlet 7.

 Reversed flow on 52 faces (36.7% area) of pressure-outlet 9.
  1948  1.7579e-04  1.8399e-02  1.0255e-02  1.6014e-16  0:00:00   52

 Reversed flow on 24 faces (14.9% area) of pressure-inlet 7.

 Reversed flow on 60 faces (44.6% area) of pressure-outlet 9.
  1949  1.7715e-04  1.8024e-02  1.0154e-02  1.5702e-16  0:00:00   51

 Reversed flow on 24 faces (14.9% area) of pressure-inlet 7.

 Reversed flow on 67 faces (38.8% area) of pressure-outlet 9.
  1950  1.6366e-04  1.7915e-02  1.0123e-02  1.5451e-16  0:00:00   50

 Reversed flow on 24 faces (14.9% area) of pressure-inlet 7.

 Reversed flow on 51 faces (19.7% area) of pressure-outlet 9.
  1951  1.6203e-04  1.7391e-02  1.0005e-02  1.5569e-16  0:00:00   49

 Reversed flow on 24 faces (14.9% area) of pressure-inlet 7.

 Reversed flow on 54 faces (20.8% area) of pressure-outlet 9.
  1952  1.5011e-04  1.7256e-02  9.9786e-03  1.5711e-16  0:00:00   48

 Reversed flow on 24 faces (14.9% area) of pressure-inlet 7.

 Reversed flow on 48 faces (16.2% area) of pressure-outlet 9.
  1953  1.9350e-04  1.6292e-02  9.9204e-03  1.5929e-16  0:00:00   47

 Reversed flow on 23 faces (13.7% area) of pressure-inlet 7.

 Reversed flow on 54 faces (18.9% area) of pressure-outlet 9.
  1954  1.5723e-04  1.5704e-02  9.8373e-03  1.5660e-16  0:00:00   46

 Reversed flow on 23 faces (13.7% area) of pressure-inlet 7.

 Reversed flow on 57 faces (19.4% area) of pressure-outlet 9.
  1955  1.7432e-04  1.5294e-02  9.5421e-03  1.5678e-16  0:00:00   45

 Reversed flow on 23 faces (13.7% area) of pressure-inlet 7.

 Reversed flow on 50 faces (17.4% area) of pressure-outlet 9.
  1956  1.6501e-04  1.5029e-02  9.1785e-03  1.5349e-16  0:00:00   44

 Reversed flow on 22 faces (12.6% area) of pressure-inlet 7.

 Reversed flow on 58 faces (22.1% area) of pressure-outlet 9.

  iter  continuity  x-velocity  y-velocity      energy     time/iter
  1957  1.4749e-04  1.5223e-02  8.8929e-03  1.5783e-16  0:00:00   43

 Reversed flow on 22 faces (12.6% area) of pressure-inlet 7.

 Reversed flow on 59 faces (24.9% area) of pressure-outlet 9.
  1958  1.5383e-04  1.4915e-02  8.7846e-03  1.6318e-16  0:00:08   42

 Reversed flow on 21 faces (11.6% area) of pressure-inlet 7.

 Reversed flow on 74 faces (37.9% area) of pressure-outlet 9.
  1959  2.7001e-04  1.4840e-02  8.7958e-03  1.6455e-16  0:00:07   41

 Reversed flow on 21 faces (11.6% area) of pressure-inlet 7.

 Reversed flow on 62 faces (39.8% area) of pressure-outlet 9.
  1960  2.0385e-04  1.8336e-02  9.2217e-03  1.6811e-16  0:00:05   40

 Reversed flow on 21 faces (11.6% area) of pressure-inlet 7.

 Reversed flow on 67 faces (47.4% area) of pressure-outlet 9.
  1961  2.0115e-04  2.1111e-02  9.9495e-03  1.6467e-16  0:00:04   39

 Reversed flow on 20 faces (10.6% area) of pressure-inlet 7.

 Reversed flow on 54 faces (45.1% area) of pressure-outlet 9.
  1962  1.8185e-04  1.6987e-02  9.3653e-03  1.6406e-16  0:00:03   38

 Reversed flow on 20 faces (10.6% area) of pressure-inlet 7.

 Reversed flow on 69 faces (50.2% area) of pressure-outlet 9.
  1963  1.6282e-04  1.6402e-02  9.5280e-03  1.6201e-16  0:00:02   37

 Reversed flow on 19 faces (9.7% area) of pressure-inlet 7.

 Reversed flow on 54 faces (39.2% area) of pressure-outlet 9.
  1964  1.6008e-04  1.6126e-02  9.5600e-03  1.6210e-16  0:00:02   36

 Reversed flow on 19 faces (9.7% area) of pressure-inlet 7.

 Reversed flow on 58 faces (41.4% area) of pressure-outlet 9.
  1965  1.6296e-04  1.6528e-02  9.4196e-03  1.5404e-16  0:00:01   35

 Reversed flow on 18 faces (8.8% area) of pressure-inlet 7.

 Reversed flow on 68 faces (52.1% area) of pressure-outlet 9.
  1966  1.5145e-04  1.6928e-02  9.2190e-03  1.5229e-16  0:00:01   34

 Reversed flow on 18 faces (8.8% area) of pressure-inlet 7.

 Reversed flow on 28 faces (14.1% area) of pressure-outlet 9.
  1967  2.0351e-04  1.6611e-02  9.1931e-03  1.5842e-16  0:00:01   33

 Reversed flow on 18 faces (8.8% area) of pressure-inlet 7.

 Reversed flow on 51 faces (16.6% area) of pressure-outlet 9.

  iter  continuity  x-velocity  y-velocity      energy     time/iter
  1968  1.4219e-04  1.6906e-02  9.3549e-03  1.5942e-16  0:00:01   32

 Reversed flow on 18 faces (8.8% area) of pressure-inlet 7.

 Reversed flow on 48 faces (14.1% area) of pressure-outlet 9.
  1969  1.4057e-04  1.6461e-02  9.6818e-03  1.6101e-16  0:00:01   31

 Reversed flow on 17 faces (8.0% area) of pressure-inlet 7.

 Reversed flow on 44 faces (18.1% area) of pressure-outlet 9.
  1970  1.4790e-04  1.6222e-02  9.7677e-03  1.5647e-16  0:00:00   30

 Reversed flow on 17 faces (8.0% area) of pressure-inlet 7.

 Reversed flow on 66 faces (24.4% area) of pressure-outlet 9.
  1971  1.5686e-04  1.6514e-02  9.8249e-03  1.5922e-16  0:00:00   29

 Reversed flow on 17 faces (8.0% area) of pressure-inlet 7.

 Reversed flow on 64 faces (29.0% area) of pressure-outlet 9.
  1972  1.7865e-04  1.7160e-02  9.8593e-03  1.5597e-16  0:00:00   28

 Reversed flow on 17 faces (8.0% area) of pressure-inlet 7.

 Reversed flow on 51 faces (32.4% area) of pressure-outlet 9.
  1973  1.6388e-04  1.7811e-02  9.7879e-03  1.5281e-16  0:00:00   27

 Reversed flow on 17 faces (8.0% area) of pressure-inlet 7.

 Reversed flow on 71 faces (46.1% area) of pressure-outlet 9.
  1974  1.5190e-04  1.8355e-02  9.7461e-03  1.5057e-16  0:00:00   26

 Reversed flow on 17 faces (8.0% area) of pressure-inlet 7.

 Reversed flow on 70 faces (48.7% area) of pressure-outlet 9.
  1975  1.5175e-04  1.8626e-02  9.8201e-03  1.5153e-16  0:00:00   25

 Reversed flow on 17 faces (8.0% area) of pressure-inlet 7.

 Reversed flow on 67 faces (51.8% area) of pressure-outlet 9.
  1976  1.5448e-04  1.8629e-02  9.8934e-03  1.4894e-16  0:00:00   24

 Reversed flow on 16 faces (7.2% area) of pressure-inlet 7.

 Reversed flow on 65 faces (49.4% area) of pressure-outlet 9.
  1977  1.5726e-04  1.8818e-02  9.9222e-03  1.5237e-16  0:00:00   23

 Reversed flow on 16 faces (7.2% area) of pressure-inlet 7.

 Reversed flow on 56 faces (48.3% area) of pressure-outlet 9.
  1978  1.4517e-04  1.8910e-02  9.9598e-03  1.5591e-16  0:00:00   22

 Reversed flow on 16 faces (7.2% area) of pressure-inlet 7.

 Reversed flow on 74 faces (55.7% area) of pressure-outlet 9.

  iter  continuity  x-velocity  y-velocity      energy     time/iter
  1979  1.5433e-04  1.8944e-02  1.0144e-02  1.5467e-16  0:00:00   21

 Reversed flow on 16 faces (7.2% area) of pressure-inlet 7.

 Reversed flow on 76 faces (56.2% area) of pressure-outlet 9.
  1980  1.4643e-04  1.9070e-02  1.0299e-02  1.5876e-16  0:00:00   20

 Reversed flow on 16 faces (7.2% area) of pressure-inlet 7.

 Reversed flow on 67 faces (54.4% area) of pressure-outlet 9.
  1981  1.5113e-04  1.9171e-02  1.0443e-02  1.5850e-16  0:00:00   19

 Reversed flow on 15 faces (6.5% area) of pressure-inlet 7.

 Reversed flow on 61 faces (58.1% area) of pressure-outlet 9.
  1982  1.5962e-04  1.9550e-02  1.0399e-02  1.6001e-16  0:00:00   18

 Reversed flow on 15 faces (6.5% area) of pressure-inlet 7.

 Reversed flow on 75 faces (55.1% area) of pressure-outlet 9.
  1983  1.6761e-04  2.0010e-02  1.0369e-02  1.5852e-16  0:00:00   17

 Reversed flow on 15 faces (6.5% area) of pressure-inlet 7.

 Reversed flow on 40 faces (31.6% area) of pressure-outlet 9.
  1984  1.4704e-04  2.0674e-02  1.0230e-02  1.5926e-16  0:00:00   16

 Reversed flow on 14 faces (5.9% area) of pressure-inlet 7.

 Reversed flow on 58 faces (39.4% area) of pressure-outlet 9.
  1985  1.4223e-04  2.0897e-02  1.0121e-02  1.6041e-16  0:00:03   15

 Reversed flow on 14 faces (5.9% area) of pressure-inlet 7.

 Reversed flow on 30 faces (20.0% area) of pressure-outlet 9.
  1986  1.6479e-04  2.0791e-02  1.0067e-02  1.5718e-16  0:00:02   14

 Reversed flow on 13 faces (5.2% area) of pressure-inlet 7.

 Reversed flow on 44 faces (18.1% area) of pressure-outlet 9.
  1987  1.3700e-04  2.0810e-02  1.0020e-02  1.5526e-16  0:00:02   13

 Reversed flow on 13 faces (5.2% area) of pressure-inlet 7.

 Reversed flow on 28 faces (12.9% area) of pressure-outlet 9.
  1988  1.5855e-04  2.0245e-02  9.8881e-03  1.5401e-16  0:00:01   12

 Reversed flow on 12 faces (4.7% area) of pressure-inlet 7.

 Reversed flow on 38 faces (13.0% area) of pressure-outlet 9.
  1989  1.7116e-04  1.9611e-02  9.6145e-03  1.5456e-16  0:00:01   11

 Reversed flow on 11 faces (4.1% area) of pressure-inlet 7.

 Reversed flow on 49 faces (13.3% area) of pressure-outlet 9.

  iter  continuity  x-velocity  y-velocity      energy     time/iter
  1990  1.6494e-04  1.9035e-02  9.3916e-03  1.5049e-16  0:00:01   10

 Reversed flow on 11 faces (4.1% area) of pressure-inlet 7.

 Reversed flow on 44 faces (12.6% area) of pressure-outlet 9.
  1991  1.5041e-04  1.8454e-02  9.3619e-03  1.5121e-16  0:00:00    9

 Reversed flow on 10 faces (3.6% area) of pressure-inlet 7.

 Reversed flow on 34 faces (10.0% area) of pressure-outlet 9.
  1992  1.5359e-04  1.8101e-02  9.2620e-03  1.5913e-16  0:00:00    8

 Reversed flow on 9 faces (3.1% area) of pressure-inlet 7.

 Reversed flow on 35 faces (9.4% area) of pressure-outlet 9.
  1993  1.5320e-04  1.7937e-02  9.1722e-03  1.5993e-16  0:00:00    7

 Reversed flow on 9 faces (3.1% area) of pressure-inlet 7.

 Reversed flow on 36 faces (10.8% area) of pressure-outlet 9.
  1994  1.3787e-04  1.7901e-02  9.1867e-03  1.5364e-16  0:00:00    6

 Reversed flow on 8 faces (2.7% area) of pressure-inlet 7.

 Reversed flow on 42 faces (12.7% area) of pressure-outlet 9.
  1995  1.2618e-04  1.8027e-02  9.3118e-03  1.5997e-16  0:00:00    5

 Reversed flow on 8 faces (2.7% area) of pressure-inlet 7.

 Reversed flow on 47 faces (14.6% area) of pressure-outlet 9.
  1996  1.2333e-04  1.7937e-02  9.3966e-03  1.5390e-16  0:00:00    4

 Reversed flow on 7 faces (2.3% area) of pressure-inlet 7.

 Reversed flow on 67 faces (30.3% area) of pressure-outlet 9.
  1997  1.2691e-04  1.7708e-02  9.4094e-03  1.5419e-16  0:00:00    3

 Reversed flow on 6 faces (1.9% area) of pressure-inlet 7.

 Reversed flow on 64 faces (43.6% area) of pressure-outlet 9.
  1998  1.3558e-04  1.7515e-02  9.2988e-03  1.5502e-16  0:00:00    2

 Reversed flow on 6 faces (1.9% area) of pressure-inlet 7.

 Reversed flow on 60 faces (44.7% area) of pressure-outlet 9.
  1999  1.4363e-04  1.7526e-02  9.1735e-03  1.5863e-16  0:00:00    1

 Reversed flow on 5 faces (1.5% area) of pressure-inlet 7.

 Reversed flow on 79 faces (57.6% area) of pressure-outlet 9.
  2000  1.4046e-04  1.7557e-02  9.0759e-03  1.5698e-16  0:00:00    0
Writing "| gzip -2cf > SolutionMonitor.gz"...
Writing temporary file C:\\Users\\blake26\\AppData\\Local\\Temp\\flntgz-54802 ...
Done.

Writing data to W:\\Documents\\AAE412finalproj_files\\dp0\\FFF-1\\Fluent\\FFF-1.1.ip ...
	x-coord
	y-coord
	pressure
	x-velocity
	y-velocity
	temperature
Done.
Writing "| gzip -2cf > FFF-1.1-5.cas.gz"...
Writing temporary file C:\\Users\\blake26\\AppData\\Local\\Temp\\flntgz-54803 ...
    4650 quadrilateral cells, zone  3, binary.
    4650 cell partition ids, zone  3, 4 partitions, binary.
    8955 2D interior faces, zone  1, binary.
     170 2D interior faces, zone  2, binary.
      10 2D pressure-inlet faces, zone  6, binary.
      50 2D pressure-inlet faces, zone  7, binary.
      65 2D wall faces, zone  8, binary.
     135 2D pressure-outlet faces, zone  9, binary.
      90 2D axis faces, zone 10, binary.
    4826 nodes, binary.
    4826 node flags, binary.
Done.

Writing "| gzip -2cf > FFF-1.1-5-02000.dat.gz"...
Writing temporary file C:\\Users\\blake26\\AppData\\Local\\Temp\\flntgz-54804 ...
Done.


Performance Timer for 1000 iterations on 4 compute nodes
  Average wall-clock time per iteration:              0.003 sec
  Global reductions per iteration:                       61 ops
  Global reductions time per iteration:               0.000 sec (0.0%)
  Message count per iteration:                         1850 messages
  Data transfer per iteration:                        0.220 MB
  LE solves per iteration:                                4 solves
  LE wall-clock time per iteration:                   0.001 sec (41.6%)
  LE global solves per iteration:                         5 solves
  LE global wall-clock time per iteration:            0.000 sec (1.7%)
  LE global matrix maximum size:                        22
  AMG cycles per iteration:                           7.174 cycles
  Relaxation sweeps per iteration:                      144 sweeps
  Relaxation exchanges per iteration:                     0 exchanges
  LE early protections (stall) per iteration:           0.000 times
  LE early protections (divergence) per iteration:      0.000 times

  Total wall-clock time:                              2.945 sec

