
Build Time: Apr 16 2019 10:49:06 
Executable Path: C:/PROGRA~1/ANSYSI~1/v194/fluent/ntbin/win64/fluent.exe

-------------------------------------------------------------------------------
ID    Hostname        Core  O.S.         PID    Vendor                   
-------------------------------------------------------------------------------
n5    X-ARMS2106PC43  6/8  Windows-x64  12244  Intel(R) Xeon(R) E3-1240 
n4    X-ARMS2106PC43  5/8  Windows-x64  2536   Intel(R) Xeon(R) E3-1240 
n3    X-ARMS2106PC43  4/8  Windows-x64  10584  Intel(R) Xeon(R) E3-1240 
n2    X-ARMS2106PC43  3/8  Windows-x64  10380  Intel(R) Xeon(R) E3-1240 
n1    X-ARMS2106PC43  2/8  Windows-x64  1512   Intel(R) Xeon(R) E3-1240 
n0*   X-ARMS2106PC43  1/8  Windows-x64  4400   Intel(R) Xeon(R) E3-1240 
host  X-ARMS2106PC43       Windows-x64  7324   Intel(R) Xeon(R) E3-1240 

MPI Option Selected: ibmmpi
Selected system interconnect: default
-------------------------------------------------------------------------------
Warning: Ignoring WB preference save-post-processing-images
Multicore SMT processors detected. Processor affinity set!
Reading "\\nas01.itap.purdue.edu\puhome\desktop\412GIT\AAE412_Project\ANSYS_Files\NozzleC\NozzleC_files\dp0\FFF-6\MECH\FFF-6.1.msh"...
Buffering for file scan...

  162391 nodes, binary.
    4020 nodes, binary.
  326380 2D interior faces, zone  1, binary.
     410 2D interior faces, zone  2, binary.
    1680 2D wall faces, zone  6, binary.
      80 2D velocity-inlet faces, zone  7, binary.
    1680 2D axis faces, zone  8, binary.
     430 2D wall faces, zone  9, binary.
     150 2D velocity-inlet faces, zone 10, binary.
  164400 quadrilateral cells, zone  3, binary.

Building...
     mesh
	auto partitioning mesh by Metis (fast),
	distributing mesh
		parts......,
		faces......,
		nodes......,
		cells......,
        bandwidth reduction using Reverse Cuthill-McKee: 27286/150 = 181.907
     materials,
     interface,
     domains,
	mixture
     zones,
	ambientinlet
	farfield
	axis
	flowinlet
	nozzlewall
	solid-surface_body
	surface_body
	interior-surface_bodySetting solid-surface_body (mixture) ... Done.

Applying mesh operation "Change Zone Type"

Applying mesh operation "Change Zone Type [ 2 ]"

Applying mesh operation "Change Zone Type [ 3 ]"

Applying mesh operation "Change Zone Type [ 4 ]"

Applying mesh operation "Change Zone Type [ 5 ]"
 Setting zone id of solid-surface_body to 3.
 Setting zone id of ambientinlet to 10.
 Setting zone id of farfield to 9.
 Setting zone id of flowinlet to 7.
 Setting zone id of interior-surface_body to 1.
 Setting zone id of surface_body to 2.
 Setting zone id of nozzlewall to 6.
 Setting zone id of axis to 8.
Done.
Setting solid-surface_body (mixture) ... Done.
Setting ambientinlet (mixture) ... Done.
Setting farfield (mixture) ... Done.
Setting flowinlet (mixture) ... Done.
Setting interior-surface_body (mixture) ... Done.
Setting surface_body (mixture) ... Done.
Setting nozzlewall (mixture) ... Done.
Setting axis (mixture) ... Done.

     parallel,
Done.

Preparing mesh for display...
Done.
"Updating Setup cell..."
"Updating Solution cell..."
Reading \\\\nas01.itap.purdue.edu\\puhome\\desktop\\412GIT\\AAE412_Project\\ANSYS_Files\\NozzleC\\NozzleC_files\\dp0\\FFF-6\\Fluent\\FFF-6.ip...
Reading IP data ...
	x-coord
	y-coord
	pressure
	x-velocity
	y-velocity
	temperature
	k
	omega
  Done.
  Initializing values...
  Done.
Writing "| gzip -2cf > FFF-6.1-Setup-Output.cas.gz"...
Writing temporary file C:\\Users\\deubanks\\AppData\\Local\\Temp\\flntgz-73242 ...
  164400 quadrilateral cells, zone  3, binary.
  164400 cell partition ids, zone  3, 6 partitions, binary.
  326380 2D interior faces, zone  1, binary.
     410 2D interior faces, zone  2, binary.
    1680 2D wall faces, zone  6, binary.
      80 2D pressure-inlet faces, zone  7, binary.
    1680 2D axis faces, zone  8, binary.
     430 2D pressure-far-field faces, zone  9, binary.
     150 2D velocity-inlet faces, zone 10, binary.
  166411 nodes, binary.
  166411 node flags, binary.
Done.


  iter  continuity  x-velocity  y-velocity      energy           k       omega     time/iter
0.
     1  1.0000e+00  1.0000e+00  1.0000e+00  1.0000e+00  4.2207e-03  6.0458e-03  0:00:00 1999
0.
     2  8.7067e-01  9.2803e-01  8.6471e-01  8.6893e-01  4.0852e-03  7.1388e-03  0:00:00 1998
0.
     3  8.4751e-01  8.5897e-01  7.5085e-01  8.4706e-01  3.9899e-03  8.1805e-03  0:00:00 1997
0.
     4  8.4989e-01  8.1195e-01  7.0487e-01  8.5700e-01  3.9047e-03  8.7805e-03  0:33:16 1996
0.
     5  8.6162e-01  7.8209e-01  6.9711e-01  8.7718e-01  3.8289e-03  9.0131e-03  0:26:36 1995
0.
     6  8.7003e-01  7.5858e-01  7.0174e-01  8.9379e-01  3.7629e-03  9.0003e-03  0:21:16 1994
0.
     7  8.7597e-01  7.4001e-01  7.0724e-01  9.0766e-01  3.7044e-03  8.8390e-03  0:17:00 1993
0.
     8  8.7885e-01  7.2480e-01  7.1266e-01  9.1825e-01  3.6535e-03  8.5890e-03  0:13:36 1992
0.
     9  8.7925e-01  7.1162e-01  7.1682e-01  9.2628e-01  3.6135e-03  8.3090e-03  0:17:31 1991
0.
    10  8.7531e-01  7.0070e-01  7.2024e-01  9.2913e-01  3.5827e-03  8.0234e-03  0:14:00 1990
0.
    11  8.6565e-01  6.9198e-01  7.2612e-01  9.2492e-01  3.5572e-03  7.7399e-03  0:11:12 1989
0.

  iter  continuity  x-velocity  y-velocity      energy           k       omega     time/iter
    12  8.5525e-01  6.8383e-01  7.3092e-01  9.2021e-01  3.5367e-03  7.4807e-03  0:08:57 1988
0.
    13  8.4651e-01  6.7656e-01  7.3266e-01  9.1731e-01  3.5192e-03  7.2413e-03  0:07:09 1987
0.
    14  8.4084e-01  6.6982e-01  7.3370e-01  9.1669e-01  3.5049e-03  7.0216e-03  0:12:21 1986
0.
    15  8.4127e-01  6.6401e-01  7.3551e-01  9.2196e-01  3.4927e-03  6.8286e-03  0:09:52 1985
0.
    16  8.4418e-01  6.5942e-01  7.4105e-01  9.2841e-01  3.4817e-03  6.6687e-03  0:07:54 1984
0.
    17  8.4776e-01  6.5558e-01  7.4936e-01  9.3491e-01  3.4711e-03  6.5399e-03  0:06:19 1983
0.
    18  8.5067e-01  6.5246e-01  7.5807e-01  9.4067e-01  3.4610e-03  6.4242e-03  0:05:03 1982
0.
    19  8.5356e-01  6.5006e-01  7.6305e-01  9.4620e-01  3.4518e-03  6.3052e-03  0:04:02 1981
0.
    20  8.5926e-01  6.4839e-01  7.6134e-01  9.5466e-01  3.4438e-03  6.1884e-03  0:09:50 1980
0.
    21  8.6712e-01  6.4713e-01  7.5403e-01  9.6538e-01  3.4342e-03  6.0574e-03  0:07:51 1979
0.
    22  8.7339e-01  6.4665e-01  7.4886e-01  9.7401e-01  3.4235e-03  5.9206e-03  0:06:17 1978
0.

  iter  continuity  x-velocity  y-velocity      energy           k       omega     time/iter
    23  8.7634e-01  6.4652e-01  7.5437e-01  9.7800e-01  3.4126e-03  5.7928e-03  0:05:01 1977
0.
    24  8.7597e-01  6.4693e-01  7.7323e-01  9.7758e-01  3.4020e-03  5.6674e-03  0:04:01 1976
0.
    25  8.7452e-01  6.4752e-01  8.0062e-01  9.7529e-01  3.3917e-03  5.5532e-03  0:03:13 1975
0.
    26  8.7539e-01  6.4850e-01  8.2821e-01  9.7612e-01  3.3807e-03  5.4462e-03  0:09:09 1974
0.
    27  8.7949e-01  6.4912e-01  8.4899e-01  9.8130e-01  3.3691e-03  5.3392e-03  0:07:19 1973
0.
    28  8.8791e-01  6.5001e-01  8.6165e-01  9.9225e-01  3.3557e-03  5.2339e-03  0:05:51 1972
0.
    29  8.9982e-01  6.5080e-01  8.6630e-01  1.0075e+00  3.3413e-03  5.1347e-03  0:04:41 1971
0.
    30  9.1381e-01  6.5147e-01  8.6554e-01  1.0249e+00  3.3264e-03  5.0356e-03  0:03:44 1970
0.
    31  9.2809e-01  6.5251e-01  8.6132e-01  1.0420e+00  3.3099e-03  4.9390e-03  0:09:33 1969
0.
    32  9.4090e-01  6.5344e-01  8.5574e-01  1.0565e+00  3.2928e-03  4.8497e-03  0:07:38 1968
0.
    33  9.5218e-01  6.5517e-01  8.4953e-01  1.0690e+00  3.2755e-03  4.7628e-03  0:06:06 1967
0.

  iter  continuity  x-velocity  y-velocity      energy           k       omega     time/iter
    34  9.6002e-01  6.5637e-01  8.4708e-01  1.0772e+00  3.2580e-03  4.6765e-03  0:04:53 1966
0.
    35  9.6470e-01  6.5793e-01  8.4805e-01  1.0821e+00  3.2411e-03  4.5947e-03  0:03:54 1965
0.
    36  9.6539e-01  6.5983e-01  8.5659e-01  1.0826e+00  3.2244e-03  4.5101e-03  0:03:07 1964
0.
    37  9.6424e-01  6.6206e-01  8.6783e-01  1.0815e+00  3.2097e-03  4.4324e-03  0:09:02 1963
0.
    38  9.6157e-01  6.6455e-01  8.8139e-01  1.0790e+00  3.1960e-03  4.3621e-03  0:07:14 1962
0.
    39  9.5959e-01  6.6715e-01  8.9364e-01  1.0777e+00  3.1822e-03  4.2957e-03  0:05:47 1961
0.
    40  9.5769e-01  6.6987e-01  9.0470e-01  1.0767e+00  3.1704e-03  4.2397e-03  0:04:37 1960
0.
    41  9.5549e-01  6.7184e-01  9.1459e-01  1.0752e+00  3.1596e-03  4.1855e-03  0:03:42 1959
0.
    42  9.5375e-01  6.7408e-01  9.2724e-01  1.0741e+00  3.1485e-03  4.1336e-03  0:09:29 1958
0.
    43  9.5223e-01  6.7612e-01  9.4090e-01  1.0732e+00  3.1385e-03  4.0879e-03  0:07:35 1957
0.
    44  9.5130e-01  6.7833e-01  9.5483e-01  1.0731e+00  3.1293e-03  4.0404e-03  0:06:04 1956
0.

  iter  continuity  x-velocity  y-velocity      energy           k       omega     time/iter
    45  9.5171e-01  6.8102e-01  9.6649e-01  1.0743e+00  3.1199e-03  3.9943e-03  0:04:51 1955
0.
    46  9.5338e-01  6.8326e-01  9.7631e-01  1.0770e+00  3.1107e-03  3.9514e-03  0:03:53 1954
0.
    47  9.5604e-01  6.8521e-01  9.8274e-01  1.0809e+00  3.1012e-03  3.9083e-03  0:03:06 1953
0.
    48  9.5811e-01  6.8676e-01  9.9009e-01  1.0842e+00  3.0919e-03  3.8634e-03  0:08:59 1952
0.
    49  9.5953e-01  6.8805e-01  9.9436e-01  1.0868e+00  3.0827e-03  3.8202e-03  0:07:11 1951
0.
    50  9.5963e-01  6.8911e-01  9.9852e-01  1.0879e+00  3.0735e-03  3.7797e-03  0:05:45 1950
0.
    51  9.5979e-01  6.9108e-01  1.0034e+00  1.0891e+00  3.0638e-03  3.7380e-03  0:04:36 1949
0.
    52  9.6108e-01  6.9280e-01  1.0082e+00  1.0911e+00  3.0533e-03  3.6959e-03  0:03:40 1948
0.
    53  9.6308e-01  6.9393e-01  1.0133e+00  1.0936e+00  3.0427e-03  3.6558e-03  0:09:26 1947
0.
    54  9.6601e-01  6.9531e-01  1.0183e+00  1.0967e+00  3.0323e-03  3.6190e-03  0:07:32 1946
0.
    55  9.6941e-01  6.9620e-01  1.0222e+00  1.1000e+00  3.0216e-03  3.5912e-03  0:06:02 1945
0.

  iter  continuity  x-velocity  y-velocity      energy           k       omega     time/iter
    56  9.7445e-01  6.9841e-01  1.0232e+00  1.1054e+00  3.0107e-03  3.5680e-03  0:04:49 1944
0.
    57  9.7994e-01  7.0071e-01  1.0260e+00  1.1108e+00  2.9998e-03  3.5495e-03  0:03:51 1943
0.
    58  9.8705e-01  7.0349e-01  1.0271e+00  1.1176e+00  2.9891e-03  3.5311e-03  0:03:05 1942
0.
    59  9.9581e-01  7.0571e-01  1.0307e+00  1.1254e+00  2.9789e-03  3.5109e-03  0:08:56 1941
0.
    60  1.0071e+00  7.0847e-01  1.0338e+00  1.1357e+00  2.9691e-03  3.4896e-03  0:07:09 1940
0.
    61  1.0209e+00  7.1120e-01  1.0371e+00  1.1488e+00  2.9599e-03  3.4678e-03  0:05:43 1939
0.
    62  1.0359e+00  7.1425e-01  1.0392e+00  1.1635e+00  2.9505e-03  3.4468e-03  0:04:34 1938
0.
    63  1.0525e+00  7.1775e-01  1.0415e+00  1.1799e+00  2.9404e-03  3.4263e-03  0:03:39 1937
0.
    64  1.0677e+00  7.2055e-01  1.0421e+00  1.1948e+00  2.9307e-03  3.4055e-03  0:09:22 1936
0.
    65  1.0813e+00  7.2417e-01  1.0428e+00  1.2081e+00  2.9215e-03  3.3832e-03  0:07:30 1935
0.
    66  1.0929e+00  7.2744e-01  1.0431e+00  1.2200e+00  2.9121e-03  3.3618e-03  0:06:00 1934
0.

  iter  continuity  x-velocity  y-velocity      energy           k       omega     time/iter
    67  1.1008e+00  7.3095e-01  1.0441e+00  1.2283e+00  2.9026e-03  3.3411e-03  0:04:47 1933
0.
    68  1.1076e+00  7.3407e-01  1.0442e+00  1.2361e+00  2.8929e-03  3.3187e-03  0:03:50 1932
0.
    69  1.1130e+00  7.3729e-01  1.0444e+00  1.2425e+00  2.8827e-03  3.2981e-03  0:03:04 1931
0.
    70  1.1191e+00  7.4009e-01  1.0435e+00  1.2497e+00  2.8729e-03  3.2797e-03  0:08:53 1930
0.
    71  1.1259e+00  7.4242e-01  1.0421e+00  1.2579e+00  2.8635e-03  3.2610e-03  0:07:06 1929
0.
    72  1.1343e+00  7.4467e-01  1.0397e+00  1.2677e+00  2.8537e-03  3.2417e-03  0:05:41 1928
0.
    73  1.1431e+00  7.4612e-01  1.0359e+00  1.2781e+00  2.8441e-03  3.2248e-03  0:04:32 1927
0.
    74  1.1495e+00  7.4746e-01  1.0313e+00  1.2861e+00  2.8350e-03  3.2092e-03  0:03:38 1926
0.
    75  1.1519e+00  7.4810e-01  1.0249e+00  1.2903e+00  2.8258e-03  3.1911e-03  0:09:19 1925
0.
    76  1.1468e+00  7.4938e-01  1.0180e+00  1.2868e+00  2.8166e-03  3.1743e-03  0:07:27 1924
0.
    77  1.1332e+00  7.4956e-01  1.0110e+00  1.2741e+00  2.8077e-03  3.1572e-03  0:05:58 1923
0.

  iter  continuity  x-velocity  y-velocity      energy           k       omega     time/iter
    78  1.1148e+00  7.4977e-01  1.0036e+00  1.2563e+00  2.7990e-03  3.1348e-03  0:04:46 1922
0.
    79  1.0955e+00  7.4934e-01  9.9838e-01  1.2372e+00  2.7908e-03  3.1141e-03  0:03:49 1921
0.
    80  1.0778e+00  7.4751e-01  9.9390e-01  1.2197e+00  2.7821e-03  3.0889e-03  0:03:03 1920
0.
    81  1.0628e+00  7.4668e-01  9.9109e-01  1.2048e+00  2.7736e-03  3.0631e-03  0:08:50 1919
0.
    82  1.0520e+00  7.4474e-01  9.8958e-01  1.1943e+00  2.7651e-03  3.0381e-03  0:07:04 1918
0.
    83  1.0445e+00  7.4372e-01  9.8666e-01  1.1872e+00  2.7570e-03  3.0130e-03  0:05:39 1917
0.
    84  1.0410e+00  7.4222e-01  9.8355e-01  1.1840e+00  2.7490e-03  2.9882e-03  0:04:31 1916
0.
    85  1.0401e+00  7.4150e-01  9.7953e-01  1.1834e+00  2.7413e-03  2.9658e-03  0:03:37 1915
0.
    86  1.0415e+00  7.4100e-01  9.7333e-01  1.1852e+00  2.7333e-03  2.9433e-03  0:09:16 1914
0.
    87  1.0443e+00  7.4117e-01  9.6821e-01  1.1884e+00  2.7258e-03  2.9227e-03  0:07:25 1913
0.
    88  1.0470e+00  7.4190e-01  9.6218e-01  1.1914e+00  2.7190e-03  2.9047e-03  0:05:55 1912
0.

  iter  continuity  x-velocity  y-velocity      energy           k       omega     time/iter
    89  1.0492e+00  7.4202e-01  9.5635e-01  1.1937e+00  2.7122e-03  2.8896e-03  0:04:44 1911
0.
    90  1.0505e+00  7.4313e-01  9.5177e-01  1.1948e+00  2.7049e-03  2.8757e-03  0:03:47 1910
0.
    91  1.0508e+00  7.4297e-01  9.4692e-01  1.1947e+00  2.6987e-03  2.8649e-03  0:03:02 1909
0.
    92  1.0502e+00  7.4363e-01  9.4247e-01  1.1938e+00  2.6927e-03  2.8546e-03  0:08:47 1908
0.
    93  1.0492e+00  7.4406e-01  9.3779e-01  1.1925e+00  2.6857e-03  2.8440e-03  0:07:01 1907
0.
    94  1.0481e+00  7.4474e-01  9.3407e-01  1.1913e+00  2.6791e-03  2.8346e-03  0:05:37 1906
0.
    95  1.0470e+00  7.4489e-01  9.2957e-01  1.1900e+00  2.6733e-03  2.8261e-03  0:04:29 1905
0.
    96  1.0462e+00  7.4529e-01  9.2574e-01  1.1893e+00  2.6670e-03  2.8153e-03  0:03:35 1904
0.
    97  1.0452e+00  7.4551e-01  9.2234e-01  1.1881e+00  2.6605e-03  2.8025e-03  0:09:13 1903
0.
    98  1.0448e+00  7.4609e-01  9.1842e-01  1.1876e+00  2.6542e-03  2.7919e-03  0:07:22 1902
0.
    99  1.0442e+00  7.4675e-01  9.1505e-01  1.1870e+00  2.6479e-03  2.7791e-03  0:05:53 1901
0.

  iter  continuity  x-velocity  y-velocity      energy           k       omega     time/iter
   100  1.0441e+00  7.4717e-01  9.1186e-01  1.1867e+00  2.6412e-03  2.7654e-03  0:04:43 1900
0.
   101  1.0444e+00  7.4756e-01  9.0827e-01  1.1869e+00  2.6349e-03  2.7520e-03  0:03:46 1899
0.
   102  1.0452e+00  7.4822e-01  9.0466e-01  1.1877e+00  2.6284e-03  2.7388e-03  0:03:01 1898
0.
   103  1.0465e+00  7.4907e-01  9.0135e-01  1.1892e+00  2.6212e-03  2.7232e-03  0:08:44 1897
0.
   104  1.0474e+00  7.4978e-01  8.9773e-01  1.1902e+00  2.6141e-03  2.7100e-03  0:06:59 1896
0.
   105  1.0486e+00  7.5033e-01  8.9420e-01  1.1916e+00  2.6080e-03  2.6973e-03  0:05:35 1895
0.
   106  1.0495e+00  7.5132e-01  8.9075e-01  1.1928e+00  2.6015e-03  2.6847e-03  0:04:28 1894
0.
   107  1.0503e+00  7.5196e-01  8.8652e-01  1.1939e+00  2.5944e-03  2.6707e-03  0:03:34 1893
0.
   108  1.0506e+00  7.5300e-01  8.8310e-01  1.1946e+00  2.5883e-03  2.6587e-03  0:02:51 1892
0.
   109  1.0508e+00  7.5383e-01  8.7931e-01  1.1951e+00  2.5828e-03  2.6479e-03  0:08:35 1891
0.
   110  1.0510e+00  7.5471e-01  8.7527e-01  1.1959e+00  2.5770e-03  2.6344e-03  0:06:52 1890
0.

  iter  continuity  x-velocity  y-velocity      energy           k       omega     time/iter
   111  1.0507e+00  7.5503e-01  8.7186e-01  1.1958e+00  2.5717e-03  2.6215e-03  0:05:29 1889
0.
   112  1.0506e+00  7.5583e-01  8.6910e-01  1.1961e+00  2.5670e-03  2.6094e-03  0:04:23 1888
0.
   113  1.0503e+00  7.5650e-01  8.6626e-01  1.1961e+00  2.5619e-03  2.5940e-03  0:03:31 1887
0.
   114  1.0504e+00  7.5684e-01  8.6356e-01  1.1962e+00  2.5569e-03  2.5774e-03  0:09:06 1886
0.
   115  1.0506e+00  7.5755e-01  8.6144e-01  1.1965e+00  2.5531e-03  2.5644e-03  0:07:16 1885
0.
   116  1.0512e+00  7.5809e-01  8.5890e-01  1.1971e+00  2.5486e-03  2.5504e-03  0:05:49 1884
0.
   117  1.0519e+00  7.5865e-01  8.5648e-01  1.1979e+00  2.5440e-03  2.5347e-03  0:04:39 1883
0.
   118  1.0527e+00  7.5892e-01  8.5391e-01  1.1986e+00  2.5395e-03  2.5211e-03  0:03:43 1882
0.
   119  1.0538e+00  7.5944e-01  8.5154e-01  1.1996e+00  2.5352e-03  2.5059e-03  0:02:58 1881
0.
   120  1.0547e+00  7.5980e-01  8.4874e-01  1.2004e+00  2.5310e-03  2.4919e-03  0:08:39 1880
0.
   121  1.0556e+00  7.6011e-01  8.4626e-01  1.2011e+00  2.5268e-03  2.4807e-03  0:06:55 1879
0.

  iter  continuity  x-velocity  y-velocity      energy           k       omega     time/iter
   122  1.0562e+00  7.6064e-01  8.4414e-01  1.2013e+00  2.5226e-03  2.4688e-03  0:05:32 1878
0.
   123  1.0566e+00  7.6055e-01  8.4191e-01  1.2013e+00  2.5185e-03  2.4578e-03  0:04:25 1877
0.
   124  1.0576e+00  7.6098e-01  8.3974e-01  1.2019e+00  2.5146e-03  2.4478e-03  0:03:32 1876
0.
   125  1.0586e+00  7.6089e-01  8.3777e-01  1.2024e+00  2.5105e-03  2.4381e-03  0:09:04 1875
0.
   126  1.0600e+00  7.6083e-01  8.3620e-01  1.2032e+00  2.5058e-03  2.4287e-03  0:07:15 1874
0.
   127  1.0616e+00  7.6072e-01  8.3461e-01  1.2042e+00  2.5009e-03  2.4209e-03  0:05:48 1873
0.
   128  1.0636e+00  7.6050e-01  8.3307e-01  1.2055e+00  2.4959e-03  2.4141e-03  0:04:38 1872
0.
   129  1.0656e+00  7.6046e-01  8.3171e-01  1.2069e+00  2.4912e-03  2.4077e-03  0:03:43 1871
0.
   130  1.0673e+00  7.5986e-01  8.3066e-01  1.2079e+00  2.4866e-03  2.4030e-03  0:02:58 1870
0.
   131  1.0691e+00  7.5964e-01  8.2972e-01  1.2090e+00  2.4809e-03  2.3953e-03  0:08:36 1869
0.
   132  1.0705e+00  7.5907e-01  8.2869e-01  1.2098e+00  2.4747e-03  2.3875e-03  0:06:53 1868
0.

  iter  continuity  x-velocity  y-velocity      energy           k       omega     time/iter
   133  1.0719e+00  7.5866e-01  8.2779e-01  1.2106e+00  2.4686e-03  2.3807e-03  0:05:30 1867
0.
   134  1.0727e+00  7.5799e-01  8.2715e-01  1.2107e+00  2.4626e-03  2.3728e-03  0:04:24 1866
0.
   135  1.0735e+00  7.5730e-01  8.2669e-01  1.2109e+00  2.4565e-03  2.3640e-03  0:03:31 1865
0.
   136  1.0742e+00  7.5680e-01  8.2623e-01  1.2112e+00  2.4500e-03  2.3531e-03  0:09:01 1864
0.
   137  1.0747e+00  7.5590e-01  8.2562e-01  1.2112e+00  2.4438e-03  2.3421e-03  0:07:13 1863
0.
   138  1.0751e+00  7.5504e-01  8.2543e-01  1.2112e+00  2.4380e-03  2.3325e-03  0:05:46 1862
0.
   139  1.0754e+00  7.5413e-01  8.2512e-01  1.2112e+00  2.4319e-03  2.3221e-03  0:04:37 1861
0.
   140  1.0760e+00  7.5340e-01  8.2498e-01  1.2116e+00  2.4255e-03  2.3116e-03  0:03:41 1860
0.
   141  1.0768e+00  7.5262e-01  8.2462e-01  1.2124e+00  2.4198e-03  2.3015e-03  0:02:57 1859
0.
   142  1.0777e+00  7.5140e-01  8.2460e-01  1.2131e+00  2.4148e-03  2.2947e-03  0:08:33 1858
0.
   143  1.0792e+00  7.5090e-01  8.2454e-01  1.2148e+00  2.4095e-03  2.2883e-03  0:06:50 1857
0.

  iter  continuity  x-velocity  y-velocity      energy           k       omega     time/iter
   144  1.0806e+00  7.4973e-01  8.2425e-01  1.2164e+00  2.4040e-03  2.2801e-03  0:05:28 1856
0.
   145  1.0821e+00  7.4890e-01  8.2428e-01  1.2181e+00  2.3991e-03  2.2748e-03  0:04:22 1855
0.
   146  1.0825e+00  7.4767e-01  8.2433e-01  1.2189e+00  2.3948e-03  2.2715e-03  0:03:30 1854
0.
   147  1.0816e+00  7.4681e-01  8.2434e-01  1.2184e+00  2.3900e-03  2.2669e-03  0:08:58 1853
0.
   148  1.0785e+00  7.4535e-01  8.2478e-01  1.2159e+00  2.3855e-03  2.2628e-03  0:07:10 1852
0.
   149  1.0731e+00  7.4366e-01  8.2561e-01  1.2109e+00  2.3814e-03  2.2587e-03  0:05:44 1851
0.
   150  1.0662e+00  7.4228e-01  8.2664e-01  1.2046e+00  2.3774e-03  2.2569e-03  0:04:35 1850
0.
   151  1.0584e+00  7.4060e-01  8.2788e-01  1.1973e+00  2.3734e-03  2.2533e-03  0:03:40 1849
0.
   152  1.0510e+00  7.3926e-01  8.2952e-01  1.1902e+00  2.3694e-03  2.2486e-03  0:02:56 1848
0.
   153  1.0450e+00  7.3805e-01  8.3082e-01  1.1843e+00  2.3651e-03  2.2435e-03  0:08:30 1847
0.
   154  1.0413e+00  7.3724e-01  8.3173e-01  1.1805e+00  2.3617e-03  2.2414e-03  0:06:48 1846
0.

  iter  continuity  x-velocity  y-velocity      energy           k       omega     time/iter
   155  1.0401e+00  7.3680e-01  8.3260e-01  1.1791e+00  2.3579e-03  2.2381e-03  0:05:26 1845
0.
   156  1.0410e+00  7.3629e-01  8.3260e-01  1.1796e+00  2.3537e-03  2.2320e-03  0:04:21 1844
0.
   157  1.0442e+00  7.3653e-01  8.3253e-01  1.1822e+00  2.3491e-03  2.2254e-03  0:03:28 1843
0.
   158  1.0484e+00  7.3650e-01  8.3243e-01  1.1857e+00  2.3456e-03  2.2209e-03  0:02:47 1842
0.
   159  1.0533e+00  7.3657e-01  8.3222e-01  1.1898e+00  2.3421e-03  2.2169e-03  0:08:21 1841
0.
   160  1.0584e+00  7.3700e-01  8.3298e-01  1.1942e+00  2.3385e-03  2.2106e-03  0:06:41 1840
0.
   161  1.0629e+00  7.3705e-01  8.3358e-01  1.1978e+00  2.3343e-03  2.2052e-03  0:05:21 1839
0.
   162  1.0670e+00  7.3739e-01  8.3449e-01  1.2012e+00  2.3315e-03  2.2012e-03  0:04:16 1838
0.
   163  1.0702e+00  7.3720e-01  8.3583e-01  1.2035e+00  2.3287e-03  2.1968e-03  0:03:25 1837
0.
   164  1.0729e+00  7.3748e-01  8.3706e-01  1.2055e+00  2.3258e-03  2.1915e-03  0:02:44 1836
0.
   165  1.0747e+00  7.3744e-01  8.3851e-01  1.2067e+00  2.3221e-03  2.1851e-03  0:08:18 1835
0.

  iter  continuity  x-velocity  y-velocity      energy           k       omega     time/iter
   166  1.0760e+00  7.3759e-01  8.4072e-01  1.2074e+00  2.3198e-03  2.1808e-03  0:06:38 1834
0.
   167  1.0769e+00  7.3784e-01  8.4279e-01  1.2078e+00  2.3180e-03  2.1780e-03  0:05:18 1833
0.
   168  1.0774e+00  7.3778e-01  8.4520e-01  1.2077e+00  2.3160e-03  2.1747e-03  0:04:15 1832
0.
   169  1.0778e+00  7.3813e-01  8.4825e-01  1.2078e+00  2.3143e-03  2.1719e-03  0:03:24 1831
0.
   170  1.0780e+00  7.3826e-01  8.5114e-01  1.2077e+00  2.3118e-03  2.1702e-03  0:08:49 1830
0.
   171  1.0785e+00  7.3886e-01  8.5456e-01  1.2080e+00  2.3105e-03  2.1688e-03  0:07:03 1829
0.
   172  1.0794e+00  7.3927e-01  8.5851e-01  1.2086e+00  2.3101e-03  2.1680e-03  0:05:38 1828
0.
   173  1.0806e+00  7.4011e-01  8.6255e-01  1.2095e+00  2.3097e-03  2.1680e-03  0:04:30 1827
0.
   174  1.0828e+00  7.4140e-01  8.6783e-01  1.2115e+00  2.3075e-03  2.1668e-03  0:03:36 1826
0.
   175  1.0869e+00  7.4327e-01  8.7361e-01  1.2150e+00  2.3059e-03  2.1671e-03  0:08:58 1825
0.
   176  1.0943e+00  7.4667e-01  8.7858e-01  1.2218e+00  2.3058e-03  2.1679e-03  0:07:10 1824
0.

  iter  continuity  x-velocity  y-velocity      energy           k       omega     time/iter
   177  1.1065e+00  7.5175e-01  8.8214e-01  1.2332e+00  2.3070e-03  2.1695e-03  0:05:44 1823
0.
   178  1.1246e+00  7.5974e-01  8.8165e-01  1.2514e+00  2.3076e-03  2.1707e-03  0:04:35 1822
0.
   179  1.1481e+00  7.7069e-01  8.7347e-01  1.2771e+00  2.3067e-03  2.1719e-03  0:03:40 1821
0.
   180  1.1718e+00  7.8297e-01  8.5663e-01  1.3060e+00  2.3075e-03  2.1758e-03  0:02:56 1820
0.
   181  1.1882e+00  7.9407e-01  8.3851e-01  1.3295e+00  2.3095e-03  2.1783e-03  0:08:24 1819
0.
   182  1.1914e+00  8.0112e-01  8.3225e-01  1.3382e+00  2.3109e-03  2.1786e-03  0:06:43 1818
0.
   183  1.1810e+00  8.0369e-01  8.4391e-01  1.3291e+00  2.3117e-03  2.1830e-03  0:05:22 1817
0.
   184  1.1645e+00  8.0371e-01  8.6683e-01  1.3109e+00  2.3135e-03  2.1888e-03  0:04:18 1816
0.
   185  1.1490e+00  8.0330e-01  8.8970e-01  1.2928e+00  2.3138e-03  2.1896e-03  0:03:26 1815
0.
   186  1.1384e+00  8.0341e-01  9.0428e-01  1.2809e+00  2.3140e-03  2.1886e-03  0:02:45 1814
0.
   187  1.1337e+00  8.0438e-01  9.0948e-01  1.2765e+00  2.3178e-03  2.1964e-03  0:08:14 1813
0.

  iter  continuity  x-velocity  y-velocity      energy           k       omega     time/iter
   188  1.1332e+00  8.0633e-01  9.0780e-01  1.2776e+00  2.3200e-03  2.2008e-03  0:06:35 1812
0.
   189  1.1354e+00  8.0880e-01  9.0175e-01  1.2817e+00  2.3188e-03  2.2003e-03  0:05:16 1811
0.
   190  1.1378e+00  8.1126e-01  8.9420e-01  1.2857e+00  2.3202e-03  2.1993e-03  0:04:13 1810
0.
   191  1.1383e+00  8.1321e-01  8.8676e-01  1.2869e+00  2.3248e-03  2.2059e-03  0:03:22 1809
0.
   192  1.1381e+00  8.1499e-01  8.8116e-01  1.2870e+00  2.3279e-03  2.2082e-03  0:08:43 1808
0.
   193  1.1368e+00  8.1661e-01  8.7731e-01  1.2856e+00  2.3272e-03  2.2052e-03  0:06:58 1807
0.
   194  1.1346e+00  8.1776e-01  8.7513e-01  1.2831e+00  2.3294e-03  2.2054e-03  0:05:34 1806
0.
   195  1.1321e+00  8.1880e-01  8.7409e-01  1.2803e+00  2.3330e-03  2.2091e-03  0:04:27 1805
0.
   196  1.1294e+00  8.1958e-01  8.7397e-01  1.2773e+00  2.3342e-03  2.2096e-03  0:03:34 1804
0.
   197  1.1267e+00  8.2001e-01  8.7460e-01  1.2744e+00  2.3354e-03  2.2076e-03  0:02:51 1803
0.
   198  1.1244e+00  8.2050e-01  8.7598e-01  1.2719e+00  2.3355e-03  2.2057e-03  0:08:17 1802
0.

  iter  continuity  x-velocity  y-velocity      energy           k       omega     time/iter
   199  1.1223e+00  8.2106e-01  8.7784e-01  1.2697e+00  2.3388e-03  2.2072e-03  0:06:37 1801
0.
   200  1.1206e+00  8.2157e-01  8.7981e-01  1.2679e+00  2.3395e-03  2.2054e-03  0:05:18 1800
0.
   201  1.1195e+00  8.2213e-01  8.8123e-01  1.2666e+00  2.3393e-03  2.2038e-03  0:04:14 1799
0.
   202  1.1190e+00  8.2262e-01  8.8198e-01  1.2660e+00  2.3408e-03  2.2025e-03  0:03:23 1798
0.
   203  1.1191e+00  8.2312e-01  8.8217e-01  1.2661e+00  2.3418e-03  2.2011e-03  0:02:42 1797
0.
   204  1.1198e+00  8.2355e-01  8.8167e-01  1.2668e+00  2.3433e-03  2.2017e-03  0:08:09 1796
0.
   205  1.1211e+00  8.2380e-01  8.8067e-01  1.2680e+00  2.3429e-03  2.1998e-03  0:06:31 1795
0.
   206  1.1231e+00  8.2438e-01  8.7896e-01  1.2698e+00  2.3429e-03  2.1980e-03  0:05:13 1794
0.
   207  1.1256e+00  8.2496e-01  8.7672e-01  1.2721e+00  2.3444e-03  2.1970e-03  0:04:10 1793
0.
   208  1.1288e+00  8.2552e-01  8.7384e-01  1.2750e+00  2.3443e-03  2.1957e-03  0:03:20 1792
0.
   209  1.1323e+00  8.2572e-01  8.7027e-01  1.2783e+00  2.3435e-03  2.1924e-03  0:08:38 1791
0.

  iter  continuity  x-velocity  y-velocity      energy           k       omega     time/iter
   210  1.1362e+00  8.2623e-01  8.6604e-01  1.2818e+00  2.3431e-03  2.1905e-03  0:06:54 1790
0.
   211  1.1398e+00  8.2654e-01  8.6098e-01  1.2850e+00  2.3417e-03  2.1884e-03  0:05:31 1789
0.
   212  1.1429e+00  8.2635e-01  8.5506e-01  1.2877e+00  2.3418e-03  2.1870e-03  0:04:25 1788
0.
   213  1.1454e+00  8.2633e-01  8.4868e-01  1.2898e+00  2.3403e-03  2.1836e-03  0:03:32 1787
0.
   214  1.1473e+00  8.2600e-01  8.4151e-01  1.2912e+00  2.3386e-03  2.1810e-03  0:08:46 1786
0.
   215  1.1482e+00  8.2536e-01  8.3397e-01  1.2916e+00  2.3393e-03  2.1808e-03  0:07:01 1785
0.
   216  1.1475e+00  8.2406e-01  8.2607e-01  1.2905e+00  2.3368e-03  2.1777e-03  0:05:37 1784
0.
   217  1.1457e+00  8.2293e-01  8.1806e-01  1.2882e+00  2.3340e-03  2.1746e-03  0:04:29 1783
0.
   218  1.1426e+00  8.2118e-01  8.1026e-01  1.2846e+00  2.3337e-03  2.1737e-03  0:03:35 1782
0.
   219  1.1385e+00  8.1901e-01  8.0289e-01  1.2801e+00  2.3308e-03  2.1715e-03  0:08:48 1781
0.
   220  1.1333e+00  8.1707e-01  7.9633e-01  1.2747e+00  2.3279e-03  2.1698e-03  0:07:02 1780
0.

  iter  continuity  x-velocity  y-velocity      energy           k       omega     time/iter
   221  1.1268e+00  8.1394e-01  7.9094e-01  1.2676e+00  2.3264e-03  2.1709e-03  0:05:38 1779
0.
   222  1.1196e+00  8.1102e-01  7.8687e-01  1.2601e+00  2.3240e-03  2.1721e-03  0:04:30 1778
0.
   223  1.1123e+00  8.0684e-01  7.8415e-01  1.2521e+00  2.3207e-03  2.1701e-03  0:03:36 1777
0.
   224  1.1057e+00  8.0303e-01  7.8258e-01  1.2450e+00  2.3189e-03  2.1720e-03  0:02:53 1776
0.
   225  1.1002e+00  7.9835e-01  7.8171e-01  1.2390e+00  2.3153e-03  2.1738e-03  0:08:13 1775
0.
   226  1.0957e+00  7.9349e-01  7.8096e-01  1.2340e+00  2.3112e-03  2.1763e-03  0:06:34 1774
0.
   227  1.0926e+00  7.8900e-01  7.8038e-01  1.2305e+00  2.3102e-03  2.1818e-03  0:05:15 1773
0.
   228  1.0906e+00  7.8427e-01  7.7975e-01  1.2283e+00  2.3050e-03  2.1836e-03  0:04:12 1772
0.
   229  1.0898e+00  7.8024e-01  7.7892e-01  1.2275e+00  2.3006e-03  2.1860e-03  0:09:16 1771
0.
   230  1.0896e+00  7.7681e-01  7.7814e-01  1.2275e+00  2.2983e-03  2.1894e-03  0:07:24 1770
0.
   231  1.0895e+00  7.7404e-01  7.7724e-01  1.2276e+00  2.2929e-03  2.1918e-03  0:05:55 1769
0.

  iter  continuity  x-velocity  y-velocity      energy           k       omega     time/iter
   232  1.0899e+00  7.7223e-01  7.7639e-01  1.2285e+00  2.2870e-03  2.1908e-03  0:04:44 1768
0.
   233  1.0908e+00  7.7185e-01  7.7577e-01  1.2301e+00  2.2834e-03  2.1905e-03  0:09:40 1767
0.
   234  1.0918e+00  7.7213e-01  7.7538e-01  1.2320e+00  2.2786e-03  2.1901e-03  0:07:44 1766
0.
   235  1.0936e+00  7.7338e-01  7.7556e-01  1.2345e+00  2.2716e-03  2.1867e-03  0:06:11 1765
0.
   236  1.0956e+00  7.7678e-01  7.7620e-01  1.2378e+00  2.2663e-03  2.1827e-03  0:10:50 1764
0.
   237  1.0973e+00  7.7978e-01  7.7721e-01  1.2407e+00  2.2604e-03  2.1793e-03  0:08:39 1763
0.
   238  1.1007e+00  7.8379e-01  7.7882e-01  1.2450e+00  2.2535e-03  2.1757e-03  0:06:55 1762
0.
   239  1.1034e+00  7.8998e-01  7.8011e-01  1.2502e+00  2.2469e-03  2.1723e-03  0:05:32 1761
0.
   240  1.1055e+00  7.9192e-01  7.8171e-01  1.2522e+00  2.2407e-03  2.1690e-03  0:04:25 1760
0.
   241  1.1092e+00  7.9876e-01  7.8318e-01  1.2590e+00  2.2348e-03  2.1648e-03  0:03:32 1759
0.
   242  1.1104e+00  7.9955e-01  7.8435e-01  1.2608e+00  2.2284e-03  2.1600e-03  0:08:41 1758
0.

  iter  continuity  x-velocity  y-velocity      energy           k       omega     time/iter
   243  1.1139e+00  8.0432e-01  7.8627e-01  1.2649e+00  2.2219e-03  2.1554e-03  0:06:57 1757
0.
   244  1.1148e+00  8.0516e-01  7.8779e-01  1.2689e+00  2.2157e-03  2.1504e-03  0:05:33 1756
0.
   245  1.1173e+00  8.0732e-01  7.9007e-01  1.2685e+00  2.2097e-03  2.1450e-03  0:04:26 1755
0.
   246  1.1195e+00  8.1317e-01  7.9240e-01  1.2757e+00  2.2040e-03  2.1403e-03  0:03:33 1754
0.
   247  1.1206e+00  8.0793e-01  7.9515e-01  1.2718e+00  2.1975e-03  2.1359e-03  0:08:41 1753
0.
   248  1.1238e+00  8.1479e-01  7.9836e-01  1.2799e+00  2.1906e-03  2.1299e-03  0:06:57 1752
0.
   249  1.1233e+00  8.0987e-01  8.0167e-01  1.2758e+00  2.1851e-03  2.1262e-03  0:05:33 1751
0.
   250  1.1276e+00  8.1204e-01  8.0601e-01  1.2810e+00  2.1774e-03  2.1202e-03  0:04:26 1750
0.
   251  1.1285e+00  8.1093e-01  8.1067e-01  1.2833e+00  2.1702e-03  2.1148e-03  0:03:33 1749
0.
   252  1.1326e+00  8.0759e-01  8.1674e-01  1.2826e+00  2.1627e-03  2.1114e-03  0:02:50 1748
0.
   253  1.1368e+00  8.1209e-01  8.2373e-01  1.2917e+00  2.1567e-03  2.1090e-03  0:08:05 1747
0.

  iter  continuity  x-velocity  y-velocity      energy           k       omega     time/iter
   254  1.1410e+00  8.0204e-01  8.3164e-01  1.2884e+00  2.1513e-03  2.1070e-03  0:06:28 1746
0.
   255  1.1489e+00  8.0864e-01  8.4025e-01  1.3006e+00  2.1457e-03  2.1044e-03  0:05:10 1745
0.
   256  1.1532e+00  7.9899e-01  8.4865e-01  1.3005e+00  2.1399e-03  2.1018e-03  0:04:08 1744
0.
   257  1.1625e+00  7.9988e-01  8.5781e-01  1.3091e+00  2.1336e-03  2.0972e-03  0:03:18 1743
0.
   258  1.1705e+00  7.9990e-01  8.6738e-01  1.3183e+00  2.1279e-03  2.0939e-03  0:08:27 1742
0.
   259  1.1826e+00  7.9082e-01  8.7843e-01  1.3242e+00  2.1227e-03  2.0897e-03  0:06:45 1741
0.
   260  1.1975e+00  7.9576e-01  8.9081e-01  1.3426e+00  2.1174e-03  2.0859e-03  0:05:24 1740
0.
   261  1.2129e+00  7.8570e-01  9.0432e-01  1.3520e+00  2.1116e-03  2.0853e-03  0:04:19 1739
0.
   262  1.2338e+00  7.8817e-01  9.1840e-01  1.3740e+00  2.1054e-03  2.0821e-03  0:03:27 1738
0.
   263  1.2539e+00  7.8630e-01  9.3082e-01  1.3938e+00  2.0993e-03  2.0805e-03  0:08:33 1737
0.
   264  1.2768e+00  7.7943e-01  9.4214e-01  1.4130e+00  2.0938e-03  2.0788e-03  0:06:50 1736
0.

  iter  continuity  x-velocity  y-velocity      energy           k       omega     time/iter
   265  1.2984e+00  7.8397e-01  9.5074e-01  1.4384e+00  2.0885e-03  2.0771e-03  0:05:28 1735
0.
   266  1.3178e+00  7.7398e-01  9.5896e-01  1.4540e+00  2.0831e-03  2.0770e-03  0:04:22 1734
0.
   267  1.3362e+00  7.7789e-01  9.6768e-01  1.4756e+00  2.0769e-03  2.0742e-03  0:03:30 1733
0.
   268  1.3474e+00  7.7200e-01  9.7789e-01  1.4872e+00  2.0706e-03  2.0725e-03  0:02:48 1732
0.
   269  1.3556e+00  7.6853e-01  9.9059e-01  1.4944e+00  2.0635e-03  2.0702e-03  0:08:00 1731
0.
   270  1.3594e+00  7.7289e-01  1.0048e+00  1.5020e+00  2.0567e-03  2.0697e-03  0:06:24 1730
0.
   271  1.3621e+00  7.6306e-01  1.0212e+00  1.5004e+00  2.0497e-03  2.0697e-03  0:05:07 1729
0.
   272  1.3719e+00  7.7014e-01  1.0388e+00  1.5129e+00  2.0433e-03  2.0667e-03  0:04:05 1728
0.
   273  1.3918e+00  7.6351e-01  1.0591e+00  1.5310e+00  2.0375e-03  2.0639e-03  0:03:16 1727
0.
   274  1.4341e+00  7.6530e-01  1.0789e+00  1.5706e+00  2.0313e-03  2.0624e-03  0:08:22 1726
0.
   275  1.5028e+00  7.7276e-01  1.0919e+00  1.6407e+00  2.0258e-03  2.0631e-03  0:06:41 1725
0.

  iter  continuity  x-velocity  y-velocity      energy           k       omega     time/iter
   276  1.5981e+00  7.6516e-01  1.0939e+00  1.7311e+00  2.0206e-03  2.0628e-03  0:05:21 1724
0.
   277  1.7143e+00  7.7647e-01  1.0766e+00  1.8517e+00  2.0157e-03  2.0621e-03  0:04:17 1723
0.
   278  1.8276e+00  7.7080e-01  1.0357e+00  1.9698e+00  2.0120e-03  2.0644e-03  0:03:25 1722
0.
   279  1.9147e+00  7.7250e-01  9.7154e-01  2.0667e+00  2.0077e-03  2.0659e-03  0:02:44 1721
0.
   280  1.9517e+00  7.7994e-01  8.9602e-01  2.1191e+00  2.0033e-03  2.0672e-03  0:07:55 1720
0.
   281  1.9225e+00  7.6683e-01  8.3179e-01  2.0966e+00  1.9991e-03  2.0696e-03  0:06:20 1719
0.
   282  1.8379e+00  7.7377e-01  8.0552e-01  2.0181e+00  1.9942e-03  2.0700e-03  0:05:04 1718
0.
   283  1.7050e+00  7.6153e-01  8.2999e-01  1.8804e+00  1.9901e-03  2.0723e-03  0:04:03 1717
0.
   284  1.5609e+00  7.5578e-01  8.8331e-01  1.7265e+00  1.9852e-03  2.0708e-03  0:03:14 1716
0.
   285  1.4287e+00  7.5884e-01  9.3461e-01  1.5893e+00  1.9801e-03  2.0715e-03  0:08:18 1715
0.
   286  1.3261e+00  7.4166e-01  9.6280e-01  1.4762e+00  1.9755e-03  2.0715e-03  0:06:38 1714
0.

  iter  continuity  x-velocity  y-velocity      energy           k       omega     time/iter
   287  1.2642e+00  7.4883e-01  9.6462e-01  1.4168e+00  1.9707e-03  2.0715e-03  0:05:19 1713
0.
   288  1.2279e+00  7.3932e-01  9.4676e-01  1.3814e+00  1.9666e-03  2.0743e-03  0:04:15 1712
0.
   289  1.2158e+00  7.3521e-01  9.2001e-01  1.3695e+00  1.9619e-03  2.0744e-03  0:03:24 1711
0.
   290  1.2124e+00  7.4260e-01  8.9298e-01  1.3727e+00  1.9578e-03  2.0757e-03  0:02:43 1710
0.
   291  1.2084e+00  7.2814e-01  8.7052e-01  1.3642e+00  1.9541e-03  2.0796e-03  0:07:52 1709
0.
   292  1.2072e+00  7.3793e-01  8.5241e-01  1.3667e+00  1.9500e-03  2.0823e-03  0:06:17 1708
0.
   293  1.1974e+00  7.3232e-01  8.3844e-01  1.3560e+00  1.9471e-03  2.0877e-03  0:05:02 1707
0.
   294  1.1897e+00  7.2825e-01  8.2563e-01  1.3446e+00  1.9435e-03  2.0916e-03  0:04:01 1706
0.
   295  1.1805e+00  7.3825e-01  8.1352e-01  1.3396e+00  1.9401e-03  2.0975e-03  0:03:13 1705
0.
   296  1.1680e+00  7.2417e-01  8.0195e-01  1.3206e+00  1.9370e-03  2.1054e-03  0:08:15 1704
0.
   297  1.1619e+00  7.3376e-01  7.9078e-01  1.3171e+00  1.9329e-03  2.1129e-03  0:06:36 1703
0.

  iter  continuity  x-velocity  y-velocity      energy           k       omega     time/iter
   298  1.1504e+00  7.2937e-01  7.8084e-01  1.3055e+00  1.9295e-03  2.1232e-03  0:05:16 1702
0.
   299  1.1433e+00  7.2437e-01  7.7239e-01  1.2945e+00  1.9260e-03  2.1308e-03  0:04:13 1701
0.
   300  1.1366e+00  7.3520e-01  7.6469e-01  1.2927e+00  1.9230e-03  2.1385e-03  0:03:22 1700
0.
   301  1.1262e+00  7.2163e-01  7.5830e-01  1.2766e+00  1.9203e-03  2.1468e-03  0:08:22 1699
0.
   302  1.1233e+00  7.3008e-01  7.5206e-01  1.2764e+00  1.9173e-03  2.1507e-03  0:06:41 1698
0.
   303  1.1152e+00  7.2851e-01  7.4670e-01  1.2694e+00  1.9153e-03  2.1569e-03  0:05:21 1697
0.
   304  1.1112e+00  7.2135e-01  7.4180e-01  1.2613e+00  1.9128e-03  2.1628e-03  0:04:16 1696
0.
   305  1.1085e+00  7.3346e-01  7.3749e-01  1.2644e+00  1.9103e-03  2.1673e-03  0:03:25 1695
0.
   306  1.1016e+00  7.2026e-01  7.3440e-01  1.2526e+00  1.9080e-03  2.1707e-03  0:02:44 1694
0.
   307  1.1021e+00  7.2800e-01  7.3149e-01  1.2558e+00  1.9051e-03  2.1717e-03  0:07:50 1693
0.
   308  1.0971e+00  7.2822e-01  7.2915e-01  1.2530e+00  1.9028e-03  2.1740e-03  0:06:15 1692
0.

  iter  continuity  x-velocity  y-velocity      energy           k       omega     time/iter
   309  1.0949e+00  7.2006e-01  7.2715e-01  1.2468e+00  1.8997e-03  2.1743e-03  0:05:00 1691
0.
   310  1.0944e+00  7.3276e-01  7.2554e-01  1.2526e+00  1.8967e-03  2.1742e-03  0:04:00 1690
0.
   311  1.0891e+00  7.2014e-01  7.2451e-01  1.2432e+00  1.8938e-03  2.1741e-03  0:03:12 1689
0.
   312  1.0911e+00  7.2748e-01  7.2355e-01  1.2483e+00  1.8899e-03  2.1712e-03  0:02:33 1688
0.
   313  1.0880e+00  7.2887e-01  7.2274e-01  1.2484e+00  1.8865e-03  2.1719e-03  0:07:40 1687
0.
   314  1.0876e+00  7.2069e-01  7.2203e-01  1.2445e+00  1.8821e-03  2.1709e-03  0:06:08 1686
0.
   315  1.0888e+00  7.3371e-01  7.2123e-01  1.2530e+00  1.8778e-03  2.1698e-03  0:04:54 1685
0.
   316  1.0848e+00  7.2177e-01  7.2053e-01  1.2459e+00  1.8736e-03  2.1700e-03  0:03:55 1684
0.
   317  1.0864e+00  7.2892e-01  7.1953e-01  1.2511e+00  1.8683e-03  2.1663e-03  0:03:08 1683
0.
   318  1.0819e+00  7.3099e-01  7.1852e-01  1.2503e+00  1.8637e-03  2.1634e-03  0:08:07 1682
0.
   319  1.0789e+00  7.2301e-01  7.1769e-01  1.2441e+00  1.8578e-03  2.1581e-03  0:06:29 1681
0.

  iter  continuity  x-velocity  y-velocity      energy           k       omega     time/iter
   320  1.0769e+00  7.3605e-01  7.1656e-01  1.2492e+00  1.8515e-03  2.1541e-03  0:05:11 1680
0.
   321  1.0695e+00  7.2460e-01  7.1547e-01  1.2382e+00  1.8456e-03  2.1509e-03  0:04:09 1679
0.
   322  1.0685e+00  7.3150e-01  7.1390e-01  1.2403e+00  1.8396e-03  2.1450e-03  0:03:19 1678
0.
   323  1.0622e+00  7.3368e-01  7.1223e-01  1.2367e+00  1.8356e-03  2.1423e-03  0:08:14 1677
0.
   324  1.0578e+00  7.2614e-01  7.1118e-01  1.2277e+00  1.8314e-03  2.1372e-03  0:06:35 1676
0.
   325  1.0538e+00  7.3866e-01  7.1087e-01  1.2289e+00  1.8276e-03  2.1329e-03  0:05:16 1675
0.
   326  1.0449e+00  7.2743e-01  7.1174e-01  1.2142e+00  1.8237e-03  2.1291e-03  0:04:13 1674
0.
   327  1.0424e+00  7.3416e-01  7.1330e-01  1.2126e+00  1.8191e-03  2.1255e-03  0:03:22 1673
0.
   328  1.0361e+00  7.3562e-01  7.1522e-01  1.2070e+00  1.8152e-03  2.1249e-03  0:02:42 1672
0.
   329  1.0350e+00  7.2813e-01  7.1697e-01  1.2007e+00  1.8104e-03  2.1223e-03  0:07:43 1671
0.
   330  1.0373e+00  7.4029e-01  7.1777e-01  1.2084e+00  1.8066e-03  2.1191e-03  0:06:10 1670
0.

  iter  continuity  x-velocity  y-velocity      energy           k       omega     time/iter
   331  1.0372e+00  7.2906e-01  7.1824e-01  1.2029e+00  1.8029e-03  2.1157e-03  0:04:56 1669
0.
   332  1.0438e+00  7.3654e-01  7.1794e-01  1.2115e+00  1.7989e-03  2.1117e-03  0:03:57 1668
0.
   333  1.0453e+00  7.3689e-01  7.1745e-01  1.2131e+00  1.7958e-03  2.1094e-03  0:03:09 1667
0.
   334  1.0498e+00  7.3150e-01  7.1705e-01  1.2120e+00  1.7919e-03  2.1059e-03  0:08:05 1666
0.
   335  1.0548e+00  7.4320e-01  7.1627e-01  1.2207e+00  1.7886e-03  2.1028e-03  0:06:27 1665
0.
   336  1.0562e+00  7.3287e-01  7.1597e-01  1.2152e+00  1.7856e-03  2.1011e-03  0:05:10 1664
0.
   337  1.0624e+00  7.4132e-01  7.1521e-01  1.2230e+00  1.7821e-03  2.0989e-03  0:04:08 1663
0.
   338  1.0628e+00  7.3907e-01  7.1447e-01  1.2227e+00  1.7799e-03  2.0968e-03  0:03:18 1662
0.
   339  1.0652e+00  7.3639e-01  7.1420e-01  1.2213e+00  1.7773e-03  2.0942e-03  0:02:38 1661
0.
   340  1.0661e+00  7.4673e-01  7.1357e-01  1.2264e+00  1.7754e-03  2.0906e-03  0:07:39 1660
0.
   341  1.0635e+00  7.3632e-01  7.1375e-01  1.2178e+00  1.7728e-03  2.0867e-03  0:06:07 1659
0.

  iter  continuity  x-velocity  y-velocity      energy           k       omega     time/iter
   342  1.0644e+00  7.4605e-01  7.1357e-01  1.2216e+00  1.7698e-03  2.0829e-03  0:04:53 1658
0.
   343  1.0599e+00  7.4031e-01  7.1363e-01  1.2156e+00  1.7678e-03  2.0795e-03  0:03:54 1657
0.
   344  1.0591e+00  7.4016e-01  7.1387e-01  1.2122e+00  1.7655e-03  2.0753e-03  0:03:07 1656
0.
   345  1.0575e+00  7.4790e-01  7.1365e-01  1.2141e+00  1.7645e-03  2.0714e-03  0:08:01 1655
0.
   346  1.0552e+00  7.3807e-01  7.1424e-01  1.2057e+00  1.7632e-03  2.0659e-03  0:06:24 1654
0.
   347  1.0569e+00  7.4853e-01  7.1420e-01  1.2110e+00  1.7620e-03  2.0604e-03  0:05:07 1653
0.
   348  1.0546e+00  7.4093e-01  7.1441e-01  1.2059e+00  1.7614e-03  2.0571e-03  0:04:06 1652
0.
   349  1.0574e+00  7.4292e-01  7.1442e-01  1.2077e+00  1.7599e-03  2.0551e-03  0:03:16 1651
0.
   350  1.0584e+00  7.4762e-01  7.1397e-01  1.2116e+00  1.7596e-03  2.0561e-03  0:02:37 1650
0.
   351  1.0601e+00  7.3942e-01  7.1395e-01  1.2082e+00  1.7589e-03  2.0563e-03  0:07:35 1649
0.
   352  1.0646e+00  7.4984e-01  7.1310e-01  1.2172e+00  1.7585e-03  2.0591e-03  0:06:04 1648
0.

  iter  continuity  x-velocity  y-velocity      energy           k       omega     time/iter
   353  1.0657e+00  7.4174e-01  7.1230e-01  1.2148e+00  1.7582e-03  2.0626e-03  0:04:51 1647
0.
   354  1.0717e+00  7.4590e-01  7.1085e-01  1.2218e+00  1.7578e-03  2.0648e-03  0:03:53 1646
0.
   355  1.0748e+00  7.4606e-01  7.0875e-01  1.2268e+00  1.7583e-03  2.0694e-03  0:03:06 1645
0.
   356  1.0794e+00  7.4147e-01  7.0633e-01  1.2276e+00  1.7580e-03  2.0723e-03  0:02:29 1644
0.
   357  1.0844e+00  7.4994e-01  7.0292e-01  1.2373e+00  1.7582e-03  2.0755e-03  0:07:28 1643
0.
   358  1.0859e+00  7.4197e-01  6.9971e-01  1.2347e+00  1.7583e-03  2.0791e-03  0:05:58 1642
0.
   359  1.0893e+00  7.4837e-01  6.9639e-01  1.2410e+00  1.7589e-03  2.0833e-03  0:04:46 1641
0.
   360  1.0869e+00  7.4380e-01  6.9399e-01  1.2389e+00  1.7596e-03  2.0872e-03  0:03:49 1640
0.
   361  1.0845e+00  7.4268e-01  6.9326e-01  1.2351e+00  1.7592e-03  2.0883e-03  0:03:03 1639
0.
   362  1.0783e+00  7.4826e-01  6.9449e-01  1.2332e+00  1.7602e-03  2.0919e-03  0:07:54 1638
0.
   363  1.0683e+00  7.4063e-01  6.9858e-01  1.2192e+00  1.7599e-03  2.0937e-03  0:06:19 1637
0.

  iter  continuity  x-velocity  y-velocity      energy           k       omega     time/iter
   364  1.0584e+00  7.4854e-01  7.0441e-01  1.2132e+00  1.7595e-03  2.0930e-03  0:05:03 1636
0.
   365  1.0439e+00  7.4308e-01  7.1157e-01  1.1964e+00  1.7598e-03  2.0946e-03  0:04:02 1635
0.
   366  1.0329e+00  7.4538e-01  7.1834e-01  1.1851e+00  1.7594e-03  2.0946e-03  0:03:14 1634
0.
   367  1.0209e+00  7.4767e-01  7.2345e-01  1.1749e+00  1.7604e-03  2.0948e-03  0:02:35 1633
0.
   368  1.0119e+00  7.4343e-01  7.2629e-01  1.1617e+00  1.7609e-03  2.0940e-03  0:07:30 1632
0.
   369  1.0067e+00  7.5126e-01  7.2581e-01  1.1603e+00  1.7620e-03  2.0936e-03  0:06:00 1631
0.
   370  1.0018e+00  7.4544e-01  7.2297e-01  1.1515e+00  1.7627e-03  2.0930e-03  0:04:48 1630
0.
   371  1.0019e+00  7.5065e-01  7.1771e-01  1.1535e+00  1.7629e-03  2.0910e-03  0:03:50 1629
0.
   372  1.0005e+00  7.4762e-01  7.1147e-01  1.1521e+00  1.7640e-03  2.0899e-03  0:03:04 1628
0.
   373  1.0014e+00  7.4783e-01  7.0490e-01  1.1512e+00  1.7636e-03  2.0870e-03  0:02:27 1627
0.
   374  1.0022e+00  7.5203e-01  6.9829e-01  1.1552e+00  1.7646e-03  2.0846e-03  0:07:23 1626
0.

  iter  continuity  x-velocity  y-velocity      energy           k       omega     time/iter
   375  1.0019e+00  7.4741e-01  6.9273e-01  1.1512e+00  1.7653e-03  2.0823e-03  0:05:54 1625
0.
   376  1.0027e+00  7.5342e-01  6.8742e-01  1.1554e+00  1.7666e-03  2.0803e-03  0:04:43 1624
0.
   377  1.0005e+00  7.4915e-01  6.8325e-01  1.1511e+00  1.7677e-03  2.0782e-03  0:03:46 1623
0.
   378  1.0002e+00  7.5191e-01  6.7939e-01  1.1514e+00  1.7683e-03  2.0756e-03  0:03:01 1622
0.
   379  9.9789e-01  7.5196e-01  6.7585e-01  1.1507e+00  1.7696e-03  2.0747e-03  0:07:49 1621
0.
   380  9.9572e-01  7.5031e-01  6.7316e-01  1.1458e+00  1.7707e-03  2.0719e-03  0:06:15 1620
0.
   381  9.9400e-01  7.5544e-01  6.7019e-01  1.1477e+00  1.7726e-03  2.0698e-03  0:05:00 1619
0.
   382  9.9110e-01  7.5132e-01  6.6794e-01  1.1419e+00  1.7740e-03  2.0699e-03  0:04:00 1618
0.
   383  9.9003e-01  7.5593e-01  6.6542e-01  1.1432e+00  1.7750e-03  2.0675e-03  0:03:12 1617
0.
   384  9.8692e-01  7.5331e-01  6.6297e-01  1.1398e+00  1.7770e-03  2.0653e-03  0:07:56 1616
0.
   385  9.8560e-01  7.5467e-01  6.6078e-01  1.1381e+00  1.7782e-03  2.0651e-03  0:06:21 1615
0.

  iter  continuity  x-velocity  y-velocity      energy           k       omega     time/iter
   386  9.8373e-01  7.5759e-01  6.5829e-01  1.1389e+00  1.7805e-03  2.0651e-03  0:05:04 1614
0.
   387  9.8200e-01  7.5484e-01  6.5640e-01  1.1345e+00  1.7818e-03  2.0658e-03  0:04:03 1613
0.
   388  9.8163e-01  7.5992e-01  6.5402e-01  1.1376e+00  1.7835e-03  2.0670e-03  0:03:15 1612
0.
   389  9.7992e-01  7.5693e-01  6.5196e-01  1.1341e+00  1.7859e-03  2.0684e-03  0:07:58 1611
0.
   390  9.8036e-01  7.6027e-01  6.4972e-01  1.1361e+00  1.7879e-03  2.0694e-03  0:06:22 1610
0.
   391  9.7935e-01  7.5950e-01  6.4747e-01  1.1360e+00  1.7906e-03  2.0723e-03  0:05:05 1609
0.
   392  9.7926e-01  7.5994e-01  6.4562e-01  1.1346e+00  1.7927e-03  2.0739e-03  0:04:04 1608
0.
   393  9.7945e-01  7.6314e-01  6.4339e-01  1.1378e+00  1.7949e-03  2.0757e-03  0:03:15 1607
0.
   394  9.7919e-01  7.6101e-01  6.4183e-01  1.1352e+00  1.7964e-03  2.0791e-03  0:07:57 1606
0.
   395  9.8017e-01  7.6495e-01  6.3984e-01  1.1389e+00  1.7983e-03  2.0818e-03  0:06:22 1605
0.
   396  9.7939e-01  7.6287e-01  6.3821e-01  1.1372e+00  1.8011e-03  2.0854e-03  0:05:05 1604
0.

  iter  continuity  x-velocity  y-velocity      energy           k       omega     time/iter
   397  9.8035e-01  7.6503e-01  6.3669e-01  1.1389e+00  1.8031e-03  2.0892e-03  0:04:04 1603
0.
   398  9.8018e-01  7.6630e-01  6.3494e-01  1.1404e+00  1.8053e-03  2.0935e-03  0:03:15 1602
0.
   399  9.7993e-01  7.6551e-01  6.3397e-01  1.1385e+00  1.8071e-03  2.0963e-03  0:02:36 1601
0.
   400  9.8028e-01  7.6849e-01  6.3242e-01  1.1417e+00  1.8093e-03  2.0997e-03  0:07:25 1600
0.
   401  9.7964e-01  7.6665e-01  6.3144e-01  1.1395e+00  1.8110e-03  2.1032e-03  0:05:55 1599
0.
   402  9.7991e-01  7.6919e-01  6.3018e-01  1.1415e+00  1.8139e-03  2.1059e-03  0:04:44 1598
0.
   403  9.7922e-01  7.6851e-01  6.2886e-01  1.1408e+00  1.8168e-03  2.1090e-03  0:03:47 1597
0.
   404  9.7947e-01  7.6937e-01  6.2805e-01  1.1409e+00  1.8194e-03  2.1132e-03  0:03:02 1596
0.
   405  9.7959e-01  7.7109e-01  6.2652e-01  1.1428e+00  1.8233e-03  2.1180e-03  0:07:44 1595
0.
   406  9.7972e-01  7.7012e-01  6.2548e-01  1.1414e+00  1.8260e-03  2.1224e-03  0:06:11 1594
0.
   407  9.8039e-01  7.7267e-01  6.2400e-01  1.1441e+00  1.8298e-03  2.1269e-03  0:04:57 1593
0.

  iter  continuity  x-velocity  y-velocity      energy           k       omega     time/iter
   408  9.8033e-01  7.7070e-01  6.2280e-01  1.1427e+00  1.8337e-03  2.1313e-03  0:03:57 1592
0.
   409  9.8141e-01  7.7288e-01  6.2170e-01  1.1447e+00  1.8371e-03  2.1345e-03  0:03:10 1591
0.
   410  9.8212e-01  7.7282e-01  6.2018e-01  1.1458e+00  1.8418e-03  2.1401e-03  0:02:32 1590
0.
   411  9.8315e-01  7.7318e-01  6.1924e-01  1.1458e+00  1.8459e-03  2.1441e-03  0:07:19 1589
0.
   412  9.8439e-01  7.7450e-01  6.1788e-01  1.1485e+00  1.8499e-03  2.1483e-03  0:05:51 1588
0.
   413  9.8540e-01  7.7310e-01  6.1704e-01  1.1478e+00  1.8545e-03  2.1526e-03  0:04:41 1587
0.
   414  9.8710e-01  7.7470e-01  6.1595e-01  1.1507e+00  1.8589e-03  2.1558e-03  0:03:44 1586
0.
   415  9.8813e-01  7.7378e-01  6.1502e-01  1.1509e+00  1.8640e-03  2.1629e-03  0:02:59 1585
0.
   416  9.8962e-01  7.7438e-01  6.1453e-01  1.1521e+00  1.8689e-03  2.1682e-03  0:07:40 1584
0.
   417  9.9096e-01  7.7453e-01  6.1364e-01  1.1540e+00  1.8737e-03  2.1721e-03  0:06:08 1583
0.
   418  9.9242e-01  7.7437e-01  6.1334e-01  1.1542e+00  1.8791e-03  2.1792e-03  0:04:54 1582
0.

  iter  continuity  x-velocity  y-velocity      energy           k       omega     time/iter
   419  9.9407e-01  7.7479e-01  6.1251e-01  1.1569e+00  1.8844e-03  2.1851e-03  0:03:55 1581
0.
   420  9.9534e-01  7.7397e-01  6.1225e-01  1.1568e+00  1.8903e-03  2.1928e-03  0:03:08 1580
0.
   421  9.9690e-01  7.7475e-01  6.1189e-01  1.1588e+00  1.8962e-03  2.1992e-03  0:02:30 1579
0.
   422  9.9809e-01  7.7371e-01  6.1133e-01  1.1596e+00  1.9022e-03  2.2040e-03  0:07:16 1578
0.
   423  9.9954e-01  7.7346e-01  6.1142e-01  1.1605e+00  1.9082e-03  2.2082e-03  0:05:48 1577
0.
   424  1.0005e+00  7.7359e-01  6.1094e-01  1.1622e+00  1.9149e-03  2.2152e-03  0:04:39 1576
0.
   425  1.0010e+00  7.7275e-01  6.1129e-01  1.1614e+00  1.9214e-03  2.2202e-03  0:03:43 1575
0.
   426  1.0014e+00  7.7260e-01  6.1121e-01  1.1624e+00  1.9284e-03  2.2253e-03  0:02:58 1574
0.
   427  1.0010e+00  7.7115e-01  6.1143e-01  1.1610e+00  1.9349e-03  2.2288e-03  0:07:37 1573
0.
   428  1.0006e+00  7.7082e-01  6.1213e-01  1.1604e+00  1.9428e-03  2.2315e-03  0:06:05 1572
0.
   429  9.9963e-01  7.6976e-01  6.1242e-01  1.1595e+00  1.9496e-03  2.2352e-03  0:04:52 1571
0.

  iter  continuity  x-velocity  y-velocity      energy           k       omega     time/iter
   430  9.9801e-01  7.6896e-01  6.1328e-01  1.1569e+00  1.9572e-03  2.2404e-03  0:03:54 1570
0.
   431  9.9591e-01  7.6842e-01  6.1361e-01  1.1552e+00  1.9640e-03  2.2437e-03  0:03:07 1569
0.
   432  9.9314e-01  7.6726e-01  6.1426e-01  1.1513e+00  1.9709e-03  2.2455e-03  0:07:43 1568
0.
   433  9.9062e-01  7.6646e-01  6.1462e-01  1.1488e+00  1.9782e-03  2.2485e-03  0:06:10 1567
0.
   434  9.8809e-01  7.6536e-01  6.1472e-01  1.1460e+00  1.9856e-03  2.2516e-03  0:04:56 1566
0.
   435  9.8601e-01  7.6465e-01  6.1491e-01  1.1432e+00  1.9926e-03  2.2535e-03  0:03:57 1565
0.
   436  9.8442e-01  7.6414e-01  6.1448e-01  1.1420e+00  2.0010e-03  2.2581e-03  0:03:09 1564
0.
   437  9.8325e-01  7.6327e-01  6.1434e-01  1.1398e+00  2.0074e-03  2.2595e-03  0:07:44 1563
0.
   438  9.8318e-01  7.6270e-01  6.1338e-01  1.1399e+00  2.0159e-03  2.2617e-03  0:06:11 1562
0.
   439  9.8368e-01  7.6178e-01  6.1247e-01  1.1397e+00  2.0235e-03  2.2620e-03  0:04:56 1561
0.
   440  9.8504e-01  7.6087e-01  6.1153e-01  1.1405e+00  2.0323e-03  2.2679e-03  0:03:57 1560
0.

  iter  continuity  x-velocity  y-velocity      energy           k       omega     time/iter
   441  9.8694e-01  7.6078e-01  6.1010e-01  1.1425e+00  2.0411e-03  2.2731e-03  0:03:09 1559
0.
   442  9.8862e-01  7.5926e-01  6.0917e-01  1.1430e+00  2.0500e-03  2.2755e-03  0:07:43 1558
0.
   443  9.9030e-01  7.5889e-01  6.0765e-01  1.1448e+00  2.0583e-03  2.2765e-03  0:06:10 1557
0.
   444  9.9094e-01  7.5770e-01  6.0669e-01  1.1445e+00  2.0663e-03  2.2774e-03  0:04:56 1556
0.
   445  9.9086e-01  7.5624e-01  6.0586e-01  1.1441e+00  2.0723e-03  2.2743e-03  0:03:57 1555
0.
   446  9.8964e-01  7.5542e-01  6.0514e-01  1.1428e+00  2.0771e-03  2.2711e-03  0:03:09 1554
0.
   447  9.8672e-01  7.5356e-01  6.0513e-01  1.1390e+00  2.0835e-03  2.2698e-03  0:02:31 1553
0.
   448  9.8324e-01  7.5249e-01  6.0511e-01  1.1359e+00  2.0888e-03  2.2698e-03  0:07:11 1552
0.
   449  9.7870e-01  7.5120e-01  6.0574e-01  1.1305e+00  2.0944e-03  2.2681e-03  0:05:45 1551
0.
   450  9.7415e-01  7.4941e-01  6.0630e-01  1.1259e+00  2.1010e-03  2.2646e-03  0:04:36 1550
0.
   451  9.6959e-01  7.4829e-01  6.0698e-01  1.1210e+00  2.1066e-03  2.2603e-03  0:03:40 1549
0.

  iter  continuity  x-velocity  y-velocity      energy           k       omega     time/iter
   452  9.6517e-01  7.4611e-01  6.0781e-01  1.1159e+00  2.1127e-03  2.2595e-03  0:02:56 1548
0.
   453  9.6164e-01  7.4539e-01  6.0836e-01  1.1126e+00  2.1193e-03  2.2576e-03  0:07:30 1547
0.
   454  9.5850e-01  7.4360e-01  6.0908e-01  1.1085e+00  2.1254e-03  2.2533e-03  0:06:00 1546
0.
   455  9.5641e-01  7.4244e-01  6.0921e-01  1.1065e+00  2.1317e-03  2.2509e-03  0:04:48 1545
0.
   456  9.5434e-01  7.4118e-01  6.0943e-01  1.1038e+00  2.1392e-03  2.2475e-03  0:03:50 1544
0.
   457  9.5288e-01  7.3933e-01  6.0949e-01  1.1018e+00  2.1460e-03  2.2457e-03  0:03:04 1543
0.
   458  9.5204e-01  7.3898e-01  6.0943e-01  1.1011e+00  2.1531e-03  2.2433e-03  0:07:35 1542
0.
   459  9.5098e-01  7.3713e-01  6.0969e-01  1.0991e+00  2.1594e-03  2.2415e-03  0:06:04 1541
0.
   460  9.5031e-01  7.3662e-01  6.0977e-01  1.0986e+00  2.1657e-03  2.2374e-03  0:04:51 1540
0.
   461  9.4908e-01  7.3522e-01  6.1062e-01  1.0968e+00  2.1712e-03  2.2326e-03  0:03:53 1539
0.
   462  9.4802e-01  7.3336e-01  6.1169e-01  1.0952e+00  2.1769e-03  2.2272e-03  0:03:06 1538
0.

  iter  continuity  x-velocity  y-velocity      energy           k       omega     time/iter
   463  9.4709e-01  7.3242e-01  6.1327e-01  1.0944e+00  2.1829e-03  2.2250e-03  0:02:29 1537
0.
   464  9.4586e-01  7.3052e-01  6.1554e-01  1.0923e+00  2.1894e-03  2.2231e-03  0:07:06 1536
0.
   465  9.4503e-01  7.2951e-01  6.1757e-01  1.0916e+00  2.1946e-03  2.2199e-03  0:05:41 1535
0.
   466  9.4387e-01  7.2780e-01  6.1991e-01  1.0897e+00  2.2002e-03  2.2161e-03  0:04:32 1534
0.
   467  9.4324e-01  7.2603e-01  6.2160e-01  1.0887e+00  2.2050e-03  2.2123e-03  0:03:38 1533
0.
   468  9.4296e-01  7.2504e-01  6.2265e-01  1.0884e+00  2.2095e-03  2.2083e-03  0:02:54 1532
0.
   469  9.4287e-01  7.2336e-01  6.2318e-01  1.0875e+00  2.2146e-03  2.2048e-03  0:07:25 1531
0.
   470  9.4356e-01  7.2317e-01  6.2262e-01  1.0885e+00  2.2188e-03  2.2014e-03  0:05:56 1530
0.
   471  9.4405e-01  7.2188e-01  6.2172e-01  1.0885e+00  2.2246e-03  2.2001e-03  0:04:45 1529
0.
   472  9.4504e-01  7.2115e-01  6.2019e-01  1.0893e+00  2.2295e-03  2.1969e-03  0:03:48 1528
0.
   473  9.4602e-01  7.2081e-01  6.1845e-01  1.0905e+00  2.2343e-03  2.1933e-03  0:03:02 1527
0.

  iter  continuity  x-velocity  y-velocity      energy           k       omega     time/iter
   474  9.4690e-01  7.1957e-01  6.1681e-01  1.0908e+00  2.2392e-03  2.1906e-03  0:02:25 1526
0.
   475  9.4821e-01  7.2002e-01  6.1510e-01  1.0926e+00  2.2446e-03  2.1894e-03  0:07:01 1525
0.
   476  9.4897e-01  7.1887e-01  6.1379e-01  1.0929e+00  2.2514e-03  2.1860e-03  0:05:37 1524
0.
   477  9.4997e-01  7.1837e-01  6.1256e-01  1.0940e+00  2.2569e-03  2.1841e-03  0:04:29 1523
0.
   478  9.5082e-01  7.1811e-01  6.1161e-01  1.0951e+00  2.2618e-03  2.1823e-03  0:03:35 1522
0.
   479  9.5135e-01  7.1673e-01  6.1082e-01  1.0953e+00  2.2663e-03  2.1824e-03  0:02:52 1521
0.
   480  9.5223e-01  7.1719e-01  6.1019e-01  1.0968e+00  2.2710e-03  2.1835e-03  0:07:22 1520
0.
   481  9.5240e-01  7.1599e-01  6.0974e-01  1.0968e+00  2.2763e-03  2.1839e-03  0:05:53 1519
0.
   482  9.5283e-01  7.1549e-01  6.0915e-01  1.0974e+00  2.2802e-03  2.1837e-03  0:04:42 1518
0.
   483  9.5309e-01  7.1541e-01  6.0873e-01  1.0981e+00  2.2825e-03  2.1827e-03  0:03:46 1517
0.
   484  9.5303e-01  7.1413e-01  6.0812e-01  1.0978e+00  2.2847e-03  2.1833e-03  0:03:00 1516
0.

  iter  continuity  x-velocity  y-velocity      energy           k       omega     time/iter
   485  9.5339e-01  7.1475e-01  6.0744e-01  1.0989e+00  2.2871e-03  2.1852e-03  0:02:24 1515
0.
   486  9.5323e-01  7.1370e-01  6.0682e-01  1.0986e+00  2.2897e-03  2.1873e-03  0:06:58 1514
0.
   487  9.5339e-01  7.1348e-01  6.0592e-01  1.0991e+00  2.2946e-03  2.1906e-03  0:05:34 1513
0.
   488  9.5359e-01  7.1361e-01  6.0510e-01  1.0997e+00  2.3016e-03  2.1945e-03  0:04:27 1512
0.
   489  9.5357e-01  7.1245e-01  6.0420e-01  1.0993e+00  2.3108e-03  2.2001e-03  0:03:34 1511
0.
   490  9.5408e-01  7.1330e-01  6.0324e-01  1.1005e+00  2.3200e-03  2.2047e-03  0:02:51 1510
0.
   491  9.5387e-01  7.1228e-01  6.0262e-01  1.0999e+00  2.3293e-03  2.2120e-03  0:07:18 1509
0.
   492  9.5387e-01  7.1209e-01  6.0198e-01  1.1000e+00  2.3400e-03  2.2194e-03  0:05:50 1508
0.
   493  9.5367e-01  7.1241e-01  6.0154e-01  1.1000e+00  2.3508e-03  2.2279e-03  0:04:40 1507
0.
   494  9.5286e-01  7.1102e-01  6.0133e-01  1.0987e+00  2.3599e-03  2.2359e-03  0:03:44 1506
0.
   495  9.5237e-01  7.1193e-01  6.0113e-01  1.0987e+00  2.3663e-03  2.2410e-03  0:02:59 1505
0.

  iter  continuity  x-velocity  y-velocity      energy           k       omega     time/iter
   496  9.5093e-01  7.1130e-01  6.0117e-01  1.0969e+00  2.3708e-03  2.2453e-03  0:02:23 1504
0.
   497  9.4953e-01  7.1109e-01  6.0130e-01  1.0955e+00  2.3739e-03  2.2501e-03  0:06:55 1503
0.
   498  9.4789e-01  7.1183e-01  6.0150e-01  1.0941e+00  2.3792e-03  2.2557e-03  0:05:32 1502
0.
   499  9.4552e-01  7.1058e-01  6.0195e-01  1.0913e+00  2.3853e-03  2.2654e-03  0:04:25 1501
0.
   500  9.4354e-01  7.1133e-01  6.0246e-01  1.0897e+00  2.3941e-03  2.2746e-03  0:03:32 1500
0.
   501  9.4077e-01  7.1088e-01  6.0316e-01  1.0867e+00  2.4026e-03  2.2849e-03  0:02:50 1499
0.
   502  9.3797e-01  7.1036e-01  6.0391e-01  1.0838e+00  2.4149e-03  2.2943e-03  0:07:15 1498
0.
   503  9.3514e-01  7.1087e-01  6.0475e-01  1.0812e+00  2.4261e-03  2.3016e-03  0:05:48 1497
0.
   504  9.3192e-01  7.0961e-01  6.0564e-01  1.0775e+00  2.4342e-03  2.3076e-03  0:04:38 1496
0.
   505  9.2938e-01  7.1042e-01  6.0648e-01  1.0754e+00  2.4414e-03  2.3132e-03  0:03:42 1495
0.
   506  9.2642e-01  7.1021e-01  6.0738e-01  1.0722e+00  2.4514e-03  2.3194e-03  0:02:58 1494
0.

  iter  continuity  x-velocity  y-velocity      energy           k       omega     time/iter
   507  9.2391e-01  7.0985e-01  6.0817e-01  1.0695e+00  2.4588e-03  2.3230e-03  0:07:21 1493
0.
   508  9.2191e-01  7.1079e-01  6.0892e-01  1.0678e+00  2.4626e-03  2.3246e-03  0:05:52 1492
0.
   509  9.1985e-01  7.0978e-01  6.0964e-01  1.0653e+00  2.4680e-03  2.3314e-03  0:04:42 1491
0.
   510  9.1899e-01  7.1059e-01  6.1029e-01  1.0647e+00  2.4785e-03  2.3368e-03  0:03:45 1490
0.
   511  9.1818e-01  7.1063e-01  6.1092e-01  1.0638e+00  2.4862e-03  2.3411e-03  0:03:00 1489
0.
   512  9.1796e-01  7.0993e-01  6.1148e-01  1.0633e+00  2.4917e-03  2.3452e-03  0:02:24 1488
0.
   513  9.1852e-01  7.1073e-01  6.1210e-01  1.0642e+00  2.5001e-03  2.3526e-03  0:06:52 1487
0.
   514  9.1907e-01  7.1004e-01  6.1271e-01  1.0643e+00  2.5105e-03  2.3609e-03  0:05:30 1486
0.
   515  9.2063e-01  7.1063e-01  6.1327e-01  1.0660e+00  2.5204e-03  2.3674e-03  0:04:24 1485
0.
   516  9.2230e-01  7.1097e-01  6.1393e-01  1.0676e+00  2.5294e-03  2.3723e-03  0:03:31 1484
0.
   517  9.2451e-01  7.1057e-01  6.1454e-01  1.0696e+00  2.5358e-03  2.3759e-03  0:02:48 1483
0.

  iter  continuity  x-velocity  y-velocity      energy           k       omega     time/iter
   518  9.2742e-01  7.1149e-01  6.1515e-01  1.0728e+00  2.5431e-03  2.3799e-03  0:07:11 1482
0.
   519  9.3027e-01  7.1113e-01  6.1576e-01  1.0753e+00  2.5469e-03  2.3868e-03  0:05:45 1481
0.
   520  9.3411e-01  7.1172e-01  6.1628e-01  1.0793e+00  2.5555e-03  2.3955e-03  0:04:36 1480
0.
   521  9.3802e-01  7.1214e-01  6.1679e-01  1.0832e+00  2.5641e-03  2.4042e-03  0:03:40 1479
0.
   522  9.4227e-01  7.1157e-01  6.1720e-01  1.0872e+00  2.5728e-03  2.4125e-03  0:02:56 1478
0.
   523  9.4719e-01  7.1264e-01  6.1750e-01  1.0925e+00  2.5792e-03  2.4191e-03  0:07:16 1477
0.
   524  9.5168e-01  7.1242e-01  6.1781e-01  1.0966e+00  2.5818e-03  2.4252e-03  0:05:49 1476
0.
   525  9.5662e-01  7.1278e-01  6.1796e-01  1.1016e+00  2.5883e-03  2.4348e-03  0:04:39 1475
0.
   526  9.6155e-01  7.1367e-01  6.1809e-01  1.1067e+00  2.6000e-03  2.4424e-03  0:03:43 1474
0.
   527  9.6608e-01  7.1325e-01  6.1819e-01  1.1108e+00  2.6077e-03  2.4462e-03  0:02:58 1473
0.
   528  9.7063e-01  7.1444e-01  6.1817e-01  1.1157e+00  2.6130e-03  2.4489e-03  0:02:22 1472
0.

  iter  continuity  x-velocity  y-velocity      energy           k       omega     time/iter
   529  9.7423e-01  7.1473e-01  6.1827e-01  1.1191e+00  2.6138e-03  2.4526e-03  0:06:48 1471
0.
   530  9.7749e-01  7.1479e-01  6.1831e-01  1.1224e+00  2.6188e-03  2.4571e-03  0:05:26 1470
0.
   531  9.8004e-01  7.1569e-01  6.1840e-01  1.1253e+00  2.6238e-03  2.4657e-03  0:04:21 1469
0.
   532  9.8151e-01  7.1541e-01  6.1871e-01  1.1267e+00  2.6285e-03  2.4714e-03  0:03:29 1468
0.
   533  9.8248e-01  7.1617e-01  6.1902e-01  1.1280e+00  2.6324e-03  2.4774e-03  0:02:47 1467
0.
   534  9.8240e-01  7.1648e-01  6.1949e-01  1.1281e+00  2.6395e-03  2.4838e-03  0:07:06 1466
0.
   535  9.8209e-01  7.1640e-01  6.2010e-01  1.1279e+00  2.6445e-03  2.4871e-03  0:05:41 1465
0.
   536  9.8178e-01  7.1724e-01  6.2069e-01  1.1280e+00  2.6451e-03  2.4877e-03  0:04:33 1464
0.
   537  9.8112e-01  7.1725e-01  6.2138e-01  1.1273e+00  2.6440e-03  2.4909e-03  0:03:38 1463
0.
   538  9.8103e-01  7.1806e-01  6.2203e-01  1.1276e+00  2.6445e-03  2.4936e-03  0:02:54 1462
0.
   539  9.8110e-01  7.1867e-01  6.2255e-01  1.1279e+00  2.6469e-03  2.4984e-03  0:02:19 1461
0.

  iter  continuity  x-velocity  y-velocity      energy           k       omega     time/iter
   540  9.8157e-01  7.1870e-01  6.2310e-01  1.1283e+00  2.6488e-03  2.5022e-03  0:06:43 1460
0.
   541  9.8275e-01  7.2000e-01  6.2348e-01  1.1299e+00  2.6496e-03  2.5055e-03  0:05:22 1459
0.
   542  9.8408e-01  7.2019e-01  6.2374e-01  1.1313e+00  2.6458e-03  2.5082e-03  0:04:18 1458
0.
   543  9.8594e-01  7.2088e-01  6.2394e-01  1.1333e+00  2.6449e-03  2.5139e-03  0:03:26 1457
0.
   544  9.8795e-01  7.2202e-01  6.2402e-01  1.1356e+00  2.6439e-03  2.5193e-03  0:02:45 1456
0.
   545  9.9017e-01  7.2200e-01  6.2401e-01  1.1379e+00  2.6435e-03  2.5257e-03  0:07:03 1455
0.
   546  9.9265e-01  7.2335e-01  6.2399e-01  1.1408e+00  2.6426e-03  2.5289e-03  0:05:38 1454
0.
   547  9.9488e-01  7.2418e-01  6.2391e-01  1.1431e+00  2.6413e-03  2.5325e-03  0:04:30 1453
0.
   548  9.9737e-01  7.2455e-01  6.2378e-01  1.1458e+00  2.6408e-03  2.5387e-03  0:08:26 1452
0.
   549  9.9969e-01  7.2612e-01  6.2367e-01  1.1485e+00  2.6418e-03  2.5447e-03  0:06:45 1451
0.
   550  1.0018e+00  7.2660e-01  6.2354e-01  1.1507e+00  2.6386e-03  2.5468e-03  0:05:24 1450
0.

  iter  continuity  x-velocity  y-velocity      energy           k       omega     time/iter
   551  1.0042e+00  7.2767e-01  6.2340e-01  1.1536e+00  2.6330e-03  2.5504e-03  0:04:19 1449
0.
   552  1.0063e+00  7.2900e-01  6.2330e-01  1.1560e+00  2.6271e-03  2.5532e-03  0:03:27 1448
0.
   553  1.0086e+00  7.2930e-01  6.2321e-01  1.1585e+00  2.6244e-03  2.5566e-03  0:07:35 1447
0.
   554  1.0110e+00  7.3065e-01  6.2314e-01  1.1615e+00  2.6224e-03  2.5624e-03  0:06:04 1446
0.
   555  1.0131e+00  7.3156e-01  6.2318e-01  1.1639e+00  2.6213e-03  2.5668e-03  0:04:51 1445
0.
   556  1.0151e+00  7.3218e-01  6.2320e-01  1.1664e+00  2.6192e-03  2.5695e-03  0:03:52 1444
0.
   557  1.0169e+00  7.3333e-01  6.2336e-01  1.1687e+00  2.6164e-03  2.5720e-03  0:03:06 1443
0.
   558  1.0184e+00  7.3385e-01  6.2364e-01  1.1705e+00  2.6130e-03  2.5747e-03  0:07:17 1442
0.
   559  1.0198e+00  7.3489e-01  6.2395e-01  1.1725e+00  2.6110e-03  2.5768e-03  0:05:49 1441
0.
   560  1.0209e+00  7.3575e-01  6.2442e-01  1.1740e+00  2.6068e-03  2.5800e-03  0:04:39 1440
0.
   561  1.0219e+00  7.3633e-01  6.2498e-01  1.1756e+00  2.6035e-03  2.5819e-03  0:03:43 1439
0.

  iter  continuity  x-velocity  y-velocity      energy           k       omega     time/iter
   562  1.0227e+00  7.3733e-01  6.2569e-01  1.1771e+00  2.6021e-03  2.5843e-03  0:02:58 1438
0.
   563  1.0231e+00  7.3774e-01  6.2670e-01  1.1781e+00  2.6018e-03  2.5889e-03  0:07:10 1437
0.
   564  1.0230e+00  7.3843e-01  6.2787e-01  1.1788e+00  2.5999e-03  2.5908e-03  0:05:44 1436
0.
   565  1.0222e+00  7.3895e-01  6.2946e-01  1.1786e+00  2.5973e-03  2.5930e-03  0:09:22 1435
0.
   566  1.0208e+00  7.3875e-01  6.3149e-01  1.1778e+00  2.5956e-03  2.5947e-03  0:07:29 1434
0.
   567  1.0188e+00  7.3922e-01  6.3388e-01  1.1766e+00  2.5927e-03  2.5981e-03  0:05:59 1433
0.
   568  1.0157e+00  7.3899e-01  6.3677e-01  1.1741e+00  2.5924e-03  2.6009e-03  0:04:47 1432
0.
   569  1.0123e+00  7.3861e-01  6.4019e-01  1.1714e+00  2.5914e-03  2.6047e-03  0:03:49 1431
0.
   570  1.0082e+00  7.3849e-01  6.4395e-01  1.1681e+00  2.5896e-03  2.6079e-03  0:03:03 1430
0.
   571  1.0034e+00  7.3765e-01  6.4802e-01  1.1637e+00  2.5886e-03  2.6126e-03  0:07:12 1429
0.
   572  9.9879e-01  7.3752e-01  6.5225e-01  1.1596e+00  2.5888e-03  2.6168e-03  0:05:46 1428
0.

  iter  continuity  x-velocity  y-velocity      energy           k       omega     time/iter
   573  9.9454e-01  7.3719e-01  6.5657e-01  1.1557e+00  2.5891e-03  2.6215e-03  0:04:36 1427
0.
   574  9.9104e-01  7.3656e-01  6.6046e-01  1.1522e+00  2.5890e-03  2.6242e-03  0:03:41 1426
0.
   575  9.8891e-01  7.3710e-01  6.6365e-01  1.1502e+00  2.5879e-03  2.6273e-03  0:02:57 1425
0.
   576  9.8865e-01  7.3710e-01  6.6598e-01  1.1497e+00  2.5863e-03  2.6290e-03  0:07:06 1424
0.
   577  9.9068e-01  7.3767e-01  6.6702e-01  1.1514e+00  2.5841e-03  2.6313e-03  0:05:41 1423
0.
   578  9.9508e-01  7.3928e-01  6.6660e-01  1.1554e+00  2.5817e-03  2.6371e-03  0:04:32 1422
0.
   579  1.0020e+00  7.4031e-01  6.6487e-01  1.1618e+00  2.5795e-03  2.6422e-03  0:03:38 1421
0.
   580  1.0111e+00  7.4237e-01  6.6186e-01  1.1702e+00  2.5768e-03  2.6476e-03  0:02:54 1420
0.
   581  1.0217e+00  7.4493e-01  6.5775e-01  1.1800e+00  2.5751e-03  2.6530e-03  0:02:19 1419
0.
   582  1.0335e+00  7.4680e-01  6.5311e-01  1.1909e+00  2.5736e-03  2.6581e-03  0:06:35 1418
0.
   583  1.0455e+00  7.4946e-01  6.4816e-01  1.2021e+00  2.5731e-03  2.6626e-03  0:05:16 1417
0.

  iter  continuity  x-velocity  y-velocity      energy           k       omega     time/iter
   584  1.0574e+00  7.5196e-01  6.4334e-01  1.2127e+00  2.5717e-03  2.6645e-03  0:04:12 1416
0.
   585  1.0686e+00  7.5391e-01  6.3886e-01  1.2228e+00  2.5690e-03  2.6658e-03  0:03:22 1415
0.
   586  1.0789e+00  7.5600e-01  6.3502e-01  1.2319e+00  2.5652e-03  2.6673e-03  0:02:41 1414
0.
   587  1.0879e+00  7.5765e-01  6.3191e-01  1.2396e+00  2.5625e-03  2.6720e-03  0:06:52 1413
0.
   588  1.0957e+00  7.5901e-01  6.2949e-01  1.2462e+00  2.5601e-03  2.6749e-03  0:05:29 1412
0.
   589  1.1022e+00  7.5985e-01  6.2783e-01  1.2514e+00  2.5567e-03  2.6755e-03  0:04:23 1411
0.
   590  1.1074e+00  7.6073e-01  6.2679e-01  1.2554e+00  2.5532e-03  2.6762e-03  0:03:30 1410
0.
   591  1.1114e+00  7.6139e-01  6.2620e-01  1.2582e+00  2.5479e-03  2.6741e-03  0:02:48 1409
0.
   592  1.1144e+00  7.6103e-01  6.2608e-01  1.2602e+00  2.5440e-03  2.6729e-03  0:02:14 1408
0.
   593  1.1164e+00  7.6130e-01  6.2627e-01  1.2612e+00  2.5405e-03  2.6714e-03  0:06:29 1407
0.
   594  1.1176e+00  7.6149e-01  6.2663e-01  1.2614e+00  2.5372e-03  2.6717e-03  0:05:11 1406
0.

  iter  continuity  x-velocity  y-velocity      energy           k       omega     time/iter
   595  1.1184e+00  7.6047e-01  6.2725e-01  1.2616e+00  2.5348e-03  2.6741e-03  0:04:08 1405
0.
   596  1.1185e+00  7.6025e-01  6.2792e-01  1.2609e+00  2.5338e-03  2.6743e-03  0:03:19 1404
0.
   597  1.1181e+00  7.6020e-01  6.2868e-01  1.2600e+00  2.5329e-03  2.6768e-03  0:02:39 1403
0.
   598  1.1177e+00  7.5926e-01  6.2944e-01  1.2594e+00  2.5327e-03  2.6785e-03  0:02:07 1402
0.
   599  1.1166e+00  7.5865e-01  6.3017e-01  1.2579e+00  2.5320e-03  2.6779e-03  0:06:22 1401
0.
   600  1.1152e+00  7.5850e-01  6.3095e-01  1.2565e+00  2.5305e-03  2.6791e-03  0:05:05 1400
0.
   601  1.1133e+00  7.5788e-01  6.3184e-01  1.2551e+00  2.5295e-03  2.6765e-03  0:04:04 1399
0.
   602  1.1101e+00  7.5705e-01  6.3301e-01  1.2523e+00  2.5284e-03  2.6785e-03  0:03:15 1398
0.
   603  1.1060e+00  7.5720e-01  6.3496e-01  1.2491e+00  2.5285e-03  2.6828e-03  0:02:36 1397
0.
   604  1.1000e+00  7.5678e-01  6.3796e-01  1.2446e+00  2.5301e-03  2.6870e-03  0:06:44 1396
0.
   605  1.0922e+00  7.5603e-01  6.4237e-01  1.2379e+00  2.5324e-03  2.6895e-03  0:05:23 1395
0.

  iter  continuity  x-velocity  y-velocity      energy           k       omega     time/iter
   606  1.0830e+00  7.5687e-01  6.4849e-01  1.2304e+00  2.5347e-03  2.6932e-03  0:04:18 1394
0.
   607  1.0719e+00  7.5652e-01  6.5601e-01  1.2210e+00  2.5363e-03  2.6943e-03  0:03:26 1393
0.
   608  1.0604e+00  7.5618e-01  6.6418e-01  1.2105e+00  2.5374e-03  2.6962e-03  0:02:45 1392
0.
   609  1.0492e+00  7.5765e-01  6.7205e-01  1.2011e+00  2.5373e-03  2.6979e-03  0:02:12 1391
0.
   610  1.0388e+00  7.5711e-01  6.7845e-01  1.1918e+00  2.5375e-03  2.7030e-03  0:06:23 1390
0.
   611  1.0307e+00  7.5734e-01  6.8252e-01  1.1843e+00  2.5383e-03  2.7084e-03  0:05:07 1389
0.
   612  1.0246e+00  7.5900e-01  6.8384e-01  1.1798e+00  2.5397e-03  2.7143e-03  0:04:05 1388
0.
   613  1.0204e+00  7.5815e-01  6.8252e-01  1.1762e+00  2.5411e-03  2.7190e-03  0:03:16 1387
0.
   614  1.0186e+00  7.5892e-01  6.7926e-01  1.1749e+00  2.5415e-03  2.7223e-03  0:02:37 1386
0.
   615  1.0174e+00  7.6038e-01  6.7500e-01  1.1749e+00  2.5434e-03  2.7250e-03  0:02:05 1385
0.
   616  1.0166e+00  7.5921e-01  6.7062e-01  1.1742e+00  2.5442e-03  2.7260e-03  0:06:17 1384
0.

  iter  continuity  x-velocity  y-velocity      energy           k       omega     time/iter
   617  1.0163e+00  7.6054e-01  6.6688e-01  1.1743e+00  2.5436e-03  2.7292e-03  0:05:01 1383
0.
   618  1.0149e+00  7.6141e-01  6.6416e-01  1.1736e+00  2.5459e-03  2.7325e-03  0:04:01 1382
0.
   619  1.0130e+00  7.6021e-01  6.6248e-01  1.1715e+00  2.5486e-03  2.7370e-03  0:03:13 1381
0.
   620  1.0114e+00  7.6189e-01  6.6170e-01  1.1704e+00  2.5507e-03  2.7400e-03  0:02:34 1380
0.
   621  1.0086e+00  7.6204e-01  6.6144e-01  1.1683e+00  2.5529e-03  2.7415e-03  0:06:39 1379
0.
   622  1.0063e+00  7.6104e-01  6.6132e-01  1.1658e+00  2.5539e-03  2.7428e-03  0:05:19 1378
0.
   623  1.0044e+00  7.6283e-01  6.6111e-01  1.1647e+00  2.5544e-03  2.7416e-03  0:04:15 1377
0.
   624  1.0020e+00  7.6207e-01  6.6065e-01  1.1629e+00  2.5560e-03  2.7410e-03  0:03:24 1376
0.
   625  1.0004e+00  7.6142e-01  6.5990e-01  1.1612e+00  2.5579e-03  2.7448e-03  0:02:43 1375
0.
   626  9.9924e-01  7.6314e-01  6.5891e-01  1.1610e+00  2.5621e-03  2.7482e-03  0:02:10 1374
0.
   627  9.9751e-01  7.6169e-01  6.5785e-01  1.1596e+00  2.5663e-03  2.7480e-03  0:06:19 1373
0.

  iter  continuity  x-velocity  y-velocity      energy           k       omega     time/iter
   628  9.9648e-01  7.6148e-01  6.5685e-01  1.1584e+00  2.5695e-03  2.7513e-03  0:05:03 1372
0.
   629  9.9531e-01  7.6286e-01  6.5606e-01  1.1579e+00  2.5725e-03  2.7514e-03  0:04:02 1371
0.
   630  9.9352e-01  7.6125e-01  6.5552e-01  1.1561e+00  2.5757e-03  2.7513e-03  0:03:13 1370
0.
   631  9.9255e-01  7.6160e-01  6.5526e-01  1.1548e+00  2.5783e-03  2.7513e-03  0:02:35 1369
0.
   632  9.9109e-01  7.6273e-01  6.5532e-01  1.1538e+00  2.5815e-03  2.7527e-03  0:06:37 1368
0.
   633  9.8918e-01  7.6115e-01  6.5563e-01  1.1514e+00  2.5850e-03  2.7522e-03  0:05:18 1367
0.
   634  9.8836e-01  7.6203e-01  6.5600e-01  1.1502e+00  2.5870e-03  2.7537e-03  0:04:14 1366
0.
   635  9.8693e-01  7.6274e-01  6.5639e-01  1.1490e+00  2.5907e-03  2.7551e-03  0:03:23 1365
0.
   636  9.8563e-01  7.6133e-01  6.5678e-01  1.1469e+00  2.5941e-03  2.7527e-03  0:02:42 1364
0.
   637  9.8552e-01  7.6264e-01  6.5715e-01  1.1464e+00  2.5968e-03  2.7511e-03  0:02:10 1363
0.
   638  9.8480e-01  7.6291e-01  6.5751e-01  1.1457e+00  2.5993e-03  2.7493e-03  0:06:16 1362
0.

  iter  continuity  x-velocity  y-velocity      energy           k       omega     time/iter
   639  9.8443e-01  7.6173e-01  6.5788e-01  1.1443e+00  2.6014e-03  2.7455e-03  0:05:01 1361
0.
   640  9.8512e-01  7.6343e-01  6.5825e-01  1.1447e+00  2.6021e-03  2.7424e-03  0:04:00 1360
0.
   641  9.8497e-01  7.6321e-01  6.5872e-01  1.1444e+00  2.6032e-03  2.7389e-03  0:03:12 1359
0.
   642  9.8537e-01  7.6242e-01  6.5930e-01  1.1437e+00  2.6042e-03  2.7357e-03  0:02:34 1358
0.
   643  9.8663e-01  7.6449e-01  6.5992e-01  1.1451e+00  2.6044e-03  2.7316e-03  0:06:34 1357
0.
   644  9.8678e-01  7.6382e-01  6.6065e-01  1.1449e+00  2.6068e-03  2.7291e-03  0:05:15 1356
0.
   645  9.8777e-01  7.6367e-01  6.6142e-01  1.1450e+00  2.6079e-03  2.7245e-03  0:04:12 1355
0.
   646  9.8905e-01  7.6555e-01  6.6221e-01  1.1465e+00  2.6085e-03  2.7179e-03  0:03:21 1354
0.
   647  9.8942e-01  7.6465e-01  6.6302e-01  1.1464e+00  2.6081e-03  2.7132e-03  0:02:41 1353
0.
   648  9.9094e-01  7.6529e-01  6.6389e-01  1.1473e+00  2.6072e-03  2.7083e-03  0:02:09 1352
0.
   649  9.9209e-01  7.6701e-01  6.6471e-01  1.1488e+00  2.6065e-03  2.7017e-03  0:06:13 1351
0.

  iter  continuity  x-velocity  y-velocity      energy           k       omega     time/iter
   650  9.9260e-01  7.6595e-01  6.6548e-01  1.1487e+00  2.6066e-03  2.6955e-03  0:04:58 1350
0.
   651  9.9432e-01  7.6730e-01  6.6618e-01  1.1502e+00  2.6059e-03  2.6912e-03  0:03:58 1349
0.
   652  9.9514e-01  7.6861e-01  6.6686e-01  1.1515e+00  2.6066e-03  2.6863e-03  0:03:11 1348
0.
   653  9.9568e-01  7.6765e-01  6.6755e-01  1.1513e+00  2.6054e-03  2.6797e-03  0:02:32 1347
0.
   654  9.9732e-01  7.6983e-01  6.6822e-01  1.1533e+00  2.6033e-03  2.6744e-03  0:06:31 1346
0.
   655  9.9761e-01  7.7030e-01  6.6896e-01  1.1540e+00  2.6022e-03  2.6694e-03  0:05:13 1345
0.
   656  9.9827e-01  7.6988e-01  6.6975e-01  1.1542e+00  2.6012e-03  2.6629e-03  0:04:10 1344
0.
   657  9.9958e-01  7.7266e-01  6.7060e-01  1.1564e+00  2.5997e-03  2.6574e-03  0:03:20 1343
0.
   658  9.9953e-01  7.7227e-01  6.7146e-01  1.1566e+00  2.5996e-03  2.6510e-03  0:02:40 1342
0.
   659  1.0005e+00  7.7284e-01  6.7228e-01  1.1573e+00  2.5974e-03  2.6431e-03  0:06:36 1341
0.
   660  1.0010e+00  7.7517e-01  6.7312e-01  1.1590e+00  2.5953e-03  2.6363e-03  0:05:16 1340
0.

  iter  continuity  x-velocity  y-velocity      energy           k       omega     time/iter
   661  1.0007e+00  7.7427e-01  6.7399e-01  1.1585e+00  2.5916e-03  2.6303e-03  0:04:13 1339
0.
   662  1.0013e+00  7.7596e-01  6.7473e-01  1.1595e+00  2.5891e-03  2.6241e-03  0:03:22 1338
0.
   663  1.0005e+00  7.7719e-01  6.7544e-01  1.1596e+00  2.5879e-03  2.6185e-03  0:02:42 1337
0.
   664  9.9904e-01  7.7595e-01  6.7627e-01  1.1577e+00  2.5859e-03  2.6113e-03  0:02:09 1336
0.
   665  9.9800e-01  7.7858e-01  6.7719e-01  1.1576e+00  2.5838e-03  2.6049e-03  0:06:10 1335
0.
   666  9.9482e-01  7.7826e-01  6.7834e-01  1.1551e+00  2.5825e-03  2.6003e-03  0:04:56 1334
0.
   667  9.9171e-01  7.7817e-01  6.7978e-01  1.1518e+00  2.5801e-03  2.5940e-03  0:03:57 1333
0.
   668  9.8801e-01  7.8043e-01  6.8143e-01  1.1496e+00  2.5783e-03  2.5880e-03  0:03:09 1332
0.
   669  9.8275e-01  7.7894e-01  6.8340e-01  1.1445e+00  2.5769e-03  2.5836e-03  0:02:31 1331
0.
   670  9.7880e-01  7.8060e-01  6.8556e-01  1.1413e+00  2.5753e-03  2.5791e-03  0:06:27 1330
0.
   671  9.7376e-01  7.8166e-01  6.8771e-01  1.1376e+00  2.5747e-03  2.5734e-03  0:05:09 1329
0.

  iter  continuity  x-velocity  y-velocity      energy           k       omega     time/iter
   672  9.6906e-01  7.8012e-01  6.8985e-01  1.1326e+00  2.5737e-03  2.5697e-03  0:04:07 1328
0.
   673  9.6606e-01  7.8294e-01  6.9170e-01  1.1310e+00  2.5728e-03  2.5655e-03  0:03:18 1327
0.
   674  9.6263e-01  7.8206e-01  6.9330e-01  1.1280e+00  2.5717e-03  2.5611e-03  0:02:38 1326
0.
   675  9.6162e-01  7.8259e-01  6.9456e-01  1.1268e+00  2.5718e-03  2.5578e-03  0:02:06 1325
0.
   676  9.6115e-01  7.8487e-01  6.9534e-01  1.1276e+00  2.5721e-03  2.5550e-03  0:06:06 1324
0.
   677  9.6062e-01  7.8254e-01  6.9581e-01  1.1263e+00  2.5733e-03  2.5511e-03  0:04:52 1323
0.
   678  9.6248e-01  7.8544e-01  6.9607e-01  1.1289e+00  2.5727e-03  2.5466e-03  0:03:54 1322
0.
   679  9.6317e-01  7.8541e-01  6.9610e-01  1.1298e+00  2.5732e-03  2.5431e-03  0:03:07 1321
0.
   680  9.6480e-01  7.8483e-01  6.9608e-01  1.1305e+00  2.5727e-03  2.5393e-03  0:02:29 1320
0.
   681  9.6657e-01  7.8798e-01  6.9583e-01  1.1335e+00  2.5726e-03  2.5360e-03  0:01:59 1319
0.
   682  9.6666e-01  7.8582e-01  6.9545e-01  1.1327e+00  2.5718e-03  2.5311e-03  0:05:59 1318
0.

  iter  continuity  x-velocity  y-velocity      energy           k       omega     time/iter
   683  9.6803e-01  7.8849e-01  6.9516e-01  1.1346e+00  2.5713e-03  2.5255e-03  0:04:47 1317
0.
   684  9.6645e-01  7.8942e-01  6.9489e-01  1.1339e+00  2.5716e-03  2.5198e-03  0:03:49 1316
0.
   685  9.6463e-01  7.8829e-01  6.9481e-01  1.1313e+00  2.5725e-03  2.5140e-03  0:03:03 1315
0.
   686  9.6315e-01  7.9198e-01  6.9477e-01  1.1316e+00  2.5728e-03  2.5080e-03  0:02:27 1314
0.
   687  9.6040e-01  7.9036e-01  6.9470e-01  1.1284e+00  2.5723e-03  2.5026e-03  0:06:20 1313
0.
   688  9.6027e-01  7.9258e-01  6.9477e-01  1.1288e+00  2.5720e-03  2.4975e-03  0:05:04 1312
0.
   689  9.5904e-01  7.9413e-01  6.9483e-01  1.1286e+00  2.5724e-03  2.4943e-03  0:04:03 1311
0.
   690  9.5835e-01  7.9245e-01  6.9497e-01  1.1267e+00  2.5725e-03  2.4905e-03  0:03:14 1310
0.
   691  9.5866e-01  7.9620e-01  6.9509e-01  1.1286e+00  2.5728e-03  2.4875e-03  0:02:35 1309
0.
   692  9.5733e-01  7.9463e-01  6.9515e-01  1.1267e+00  2.5734e-03  2.4845e-03  0:02:04 1308
0.
   693  9.5830e-01  7.9654e-01  6.9544e-01  1.1279e+00  2.5733e-03  2.4817e-03  0:06:01 1307
0.

  iter  continuity  x-velocity  y-velocity      energy           k       omega     time/iter
   694  9.5796e-01  7.9811e-01  6.9560e-01  1.1286e+00  2.5742e-03  2.4801e-03  0:04:48 1306
0.
   695  9.5787e-01  7.9622e-01  6.9582e-01  1.1272e+00  2.5750e-03  2.4787e-03  0:03:50 1305
0.
   696  9.5903e-01  8.0011e-01  6.9610e-01  1.1300e+00  2.5756e-03  2.4743e-03  0:03:04 1304
0.
   697  9.5846e-01  7.9863e-01  6.9632e-01  1.1289e+00  2.5775e-03  2.4709e-03  0:02:27 1303
0.
   698  9.6009e-01  8.0090e-01  6.9674e-01  1.1309e+00  2.5785e-03  2.4684e-03  0:06:18 1302
0.
   699  9.6038e-01  8.0254e-01  6.9699e-01  1.1324e+00  2.5805e-03  2.4658e-03  0:05:02 1301
0.
   700  9.6100e-01  8.0108e-01  6.9733e-01  1.1317e+00  2.5823e-03  2.4644e-03  0:04:02 1300
0.
   701  9.6270e-01  8.0548e-01  6.9775e-01  1.1353e+00  2.5839e-03  2.4630e-03  0:03:13 1299
0.
   702  9.6261e-01  8.0380e-01  6.9806e-01  1.1346e+00  2.5863e-03  2.4625e-03  0:02:34 1298
0.
   703  9.6448e-01  8.0646e-01  6.9843e-01  1.1370e+00  2.5876e-03  2.4622e-03  0:02:03 1297
0.
   704  9.6447e-01  8.0798e-01  6.9869e-01  1.1381e+00  2.5904e-03  2.4622e-03  0:05:58 1296
0.

  iter  continuity  x-velocity  y-velocity      energy           k       omega     time/iter
   705  9.6478e-01  8.0658e-01  6.9896e-01  1.1373e+00  2.5930e-03  2.4625e-03  0:04:46 1295
0.
   706  9.6569e-01  8.1093e-01  6.9921e-01  1.1402e+00  2.5955e-03  2.4621e-03  0:03:49 1294
0.
   707  9.6494e-01  8.0876e-01  6.9945e-01  1.1388e+00  2.5976e-03  2.4616e-03  0:03:03 1293
0.
   708  9.6634e-01  8.1160e-01  6.9985e-01  1.1411e+00  2.6009e-03  2.4614e-03  0:02:26 1292
0.
   709  9.6581e-01  8.1275e-01  7.0018e-01  1.1416e+00  2.6051e-03  2.4611e-03  0:06:15 1291
0.
   710  9.6595e-01  8.1139e-01  7.0048e-01  1.1408e+00  2.6086e-03  2.4604e-03  0:05:00 1290
0.
   711  9.6649e-01  8.1570e-01  7.0091e-01  1.1434e+00  2.6127e-03  2.4612e-03  0:04:00 1289
0.
   712  9.6541e-01  8.1356e-01  7.0129e-01  1.1416e+00  2.6168e-03  2.4611e-03  0:03:12 1288
0.
   713  9.6673e-01  8.1663e-01  7.0169e-01  1.1440e+00  2.6199e-03  2.4593e-03  0:02:33 1287
0.
   714  9.6602e-01  8.1758e-01  7.0194e-01  1.1443e+00  2.6244e-03  2.4604e-03  0:02:02 1286
0.
   715  9.6634e-01  8.1676e-01  7.0230e-01  1.1438e+00  2.6283e-03  2.4604e-03  0:05:55 1285
0.

  iter  continuity  x-velocity  y-velocity      energy           k       omega     time/iter
   716  9.6707e-01  8.2090e-01  7.0268e-01  1.1465e+00  2.6309e-03  2.4611e-03  0:04:44 1284
0.
   717  9.6629e-01  8.1849e-01  7.0290e-01  1.1448e+00  2.6347e-03  2.4617e-03  0:03:47 1283
0.
   718  9.6781e-01  8.2185e-01  7.0313e-01  1.1476e+00  2.6382e-03  2.4618e-03  0:03:01 1282
0.
   719  9.6735e-01  8.2238e-01  7.0320e-01  1.1477e+00  2.6430e-03  2.4630e-03  0:02:25 1281
0.
   720  9.6811e-01  8.2225e-01  7.0326e-01  1.1478e+00  2.6477e-03  2.4628e-03  0:01:56 1280
0.
   721  9.6898e-01  8.2590e-01  7.0324e-01  1.1505e+00  2.6524e-03  2.4622e-03  0:05:48 1279
0.
   722  9.6855e-01  8.2319e-01  7.0311e-01  1.1489e+00  2.6568e-03  2.4614e-03  0:04:38 1278
0.
   723  9.7027e-01  8.2671e-01  7.0309e-01  1.1518e+00  2.6603e-03  2.4596e-03  0:03:43 1277
0.
   724  9.7013e-01  8.2671e-01  7.0287e-01  1.1520e+00  2.6651e-03  2.4591e-03  0:02:58 1276
0.
   725  9.7121e-01  8.2670e-01  7.0272e-01  1.1523e+00  2.6685e-03  2.4586e-03  0:02:22 1275
0.
   726  9.7206e-01  8.3015e-01  7.0269e-01  1.1548e+00  2.6718e-03  2.4582e-03  0:06:09 1274
0.

[...]
0.
  1831  1.7567e+00  1.1947e+00  1.3275e+00  2.4630e+00  3.0020e-03  2.2474e-03  0:00:30  169
0.
  1832  1.7501e+00  1.1906e+00  1.3215e+00  2.4526e+00  3.0081e-03  2.2475e-03  0:00:24  168
0.
  1833  1.7449e+00  1.1894e+00  1.3156e+00  2.4451e+00  3.0140e-03  2.2466e-03  0:00:19  167
0.
  1834  1.7411e+00  1.1860e+00  1.3099e+00  2.4383e+00  3.0187e-03  2.2452e-03  0:00:48  166
0.
  1835  1.7398e+00  1.1881e+00  1.3040e+00  2.4361e+00  3.0218e-03  2.2439e-03  0:00:38  165
0.
  1836  1.7338e+00  1.1862e+00  1.2988e+00  2.4290e+00  3.0229e-03  2.2405e-03  0:00:30  164
0.
  1837  1.7277e+00  1.1846e+00  1.2938e+00  2.4206e+00  3.0243e-03  2.2374e-03  0:00:24  163
0.

  iter  continuity  x-velocity  y-velocity      energy           k       omega     time/iter
  1838  1.7229e+00  1.1851e+00  1.2882e+00  2.4154e+00  3.0241e-03  2.2338e-03  0:00:19  162
0.
  1839  1.7192e+00  1.1828e+00  1.2831e+00  2.4112e+00  3.0223e-03  2.2290e-03  0:00:15  161
0.
  1840  1.7192e+00  1.1859e+00  1.2790e+00  2.4123e+00  3.0203e-03  2.2240e-03  0:00:44  160
0.
  1841  1.7191e+00  1.1851e+00  1.2757e+00  2.4139e+00  3.0191e-03  2.2219e-03  0:00:35  159
0.
  1842  1.7194e+00  1.1829e+00  1.2732e+00  2.4145e+00  3.0199e-03  2.2205e-03  0:00:28  158
0.
  1843  1.7191e+00  1.1828e+00  1.2697e+00  2.4159e+00  3.0218e-03  2.2198e-03  0:00:22  157
0.
  1844  1.7181e+00  1.1797e+00  1.2657e+00  2.4158e+00  3.0257e-03  2.2180e-03  0:00:18  156
0.
  1845  1.7180e+00  1.1813e+00  1.2621e+00  2.4174e+00  3.0313e-03  2.2177e-03  0:00:45  155
0.
  1846  1.7148e+00  1.1826e+00  1.2598e+00  2.4162e+00  3.0365e-03  2.2153e-03  0:00:36  154
0.
  1847  1.7103e+00  1.1815e+00  1.2600e+00  2.4113e+00  3.0429e-03  2.2142e-03  0:00:28  153
0.
  1848  1.7068e+00  1.1833e+00  1.2609e+00  2.4074e+00  3.0495e-03  2.2145e-03  0:00:23  152
0.

  iter  continuity  x-velocity  y-velocity      energy           k       omega     time/iter
  1849  1.7011e+00  1.1815e+00  1.2615e+00  2.4003e+00  3.0543e-03  2.2156e-03  0:00:18  151
0.
  1850  1.6974e+00  1.1822e+00  1.2605e+00  2.3954e+00  3.0590e-03  2.2176e-03  0:00:44  150
0.
  1851  1.6938e+00  1.1859e+00  1.2592e+00  2.3927e+00  3.0627e-03  2.2163e-03  0:00:35  149
0.
  1852  1.6870e+00  1.1847e+00  1.2581e+00  2.3854e+00  3.0673e-03  2.2161e-03  0:00:28  148
0.
  1853  1.6815e+00  1.1867e+00  1.2579e+00  2.3787e+00  3.0733e-03  2.2169e-03  0:00:22  147
0.
  1854  1.6749e+00  1.1881e+00  1.2591e+00  2.3700e+00  3.0785e-03  2.2185e-03  0:00:18  146
0.
  1855  1.6688e+00  1.1873e+00  1.2604e+00  2.3605e+00  3.0846e-03  2.2194e-03  0:00:43  145
0.
  1856  1.6667e+00  1.1908e+00  1.2614e+00  2.3569e+00  3.0909e-03  2.2196e-03  0:00:34  144
0.
  1857  1.6637e+00  1.1926e+00  1.2622e+00  2.3535e+00  3.0978e-03  2.2202e-03  0:00:27  143
0.
  1858  1.6593e+00  1.1934e+00  1.2640e+00  2.3482e+00  3.1065e-03  2.2212e-03  0:00:22  142
0.
  1859  1.6557e+00  1.1964e+00  1.2663e+00  2.3434e+00  3.1157e-03  2.2222e-03  0:00:17  141
0.

  iter  continuity  x-velocity  y-velocity      energy           k       omega     time/iter
  1860  1.6530e+00  1.1987e+00  1.2682e+00  2.3394e+00  3.1257e-03  2.2238e-03  0:00:14  140
0.
  1861  1.6516e+00  1.2012e+00  1.2697e+00  2.3359e+00  3.1363e-03  2.2246e-03  0:00:39  139
0.
  1862  1.6527e+00  1.2057e+00  1.2708e+00  2.3361e+00  3.1465e-03  2.2255e-03  0:00:31  138
0.
  1863  1.6535e+00  1.2091e+00  1.2715e+00  2.3373e+00  3.1562e-03  2.2257e-03  0:00:24  137
0.
  1864  1.6517e+00  1.2118e+00  1.2728e+00  2.3351e+00  3.1681e-03  2.2272e-03  0:00:19  136
0.
  1865  1.6499e+00  1.2148e+00  1.2745e+00  2.3325e+00  3.1804e-03  2.2285e-03  0:00:15  135
0.
  1866  1.6490e+00  1.2172e+00  1.2756e+00  2.3304e+00  3.1926e-03  2.2302e-03  0:00:12  134
0.
  1867  1.6492e+00  1.2197e+00  1.2768e+00  2.3287e+00  3.2045e-03  2.2327e-03  0:00:36  133
0.
  1868  1.6515e+00  1.2237e+00  1.2782e+00  2.3302e+00  3.2175e-03  2.2347e-03  0:00:29  132
0.
  1869  1.6535e+00  1.2270e+00  1.2802e+00  2.3327e+00  3.2312e-03  2.2372e-03  0:00:23  131
0.
  1870  1.6533e+00  1.2293e+00  1.2833e+00  2.3321e+00  3.2447e-03  2.2400e-03  0:00:18  130
0.

  iter  continuity  x-velocity  y-velocity      energy           k       omega     time/iter
  1871  1.6528e+00  1.2317e+00  1.2867e+00  2.3304e+00  3.2578e-03  2.2449e-03  0:00:14  129
0.
  1872  1.6545e+00  1.2335e+00  1.2895e+00  2.3309e+00  3.2713e-03  2.2506e-03  0:00:37  128
0.
  1873  1.6592e+00  1.2349e+00  1.2929e+00  2.3348e+00  3.2850e-03  2.2577e-03  0:00:29  127
0.
  1874  1.6642e+00  1.2375e+00  1.2971e+00  2.3398e+00  3.2992e-03  2.2652e-03  0:00:23  126
0.
  1875  1.6682e+00  1.2393e+00  1.3022e+00  2.3440e+00  3.3133e-03  2.2728e-03  0:00:19  125
0.
  1876  1.6710e+00  1.2404e+00  1.3077e+00  2.3468e+00  3.3283e-03  2.2806e-03  0:00:15  124
0.
  1877  1.6741e+00  1.2419e+00  1.3129e+00  2.3496e+00  3.3440e-03  2.2882e-03  0:00:12  123
0.
  1878  1.6797e+00  1.2435e+00  1.3183e+00  2.3553e+00  3.3592e-03  2.2955e-03  0:00:34  122
0.
  1879  1.6871e+00  1.2459e+00  1.3246e+00  2.3639e+00  3.3742e-03  2.3024e-03  0:00:27  121
0.
  1880  1.6930e+00  1.2487e+00  1.3324e+00  2.3716e+00  3.3903e-03  2.3086e-03  0:00:21  120
0.
  1881  1.6964e+00  1.2495e+00  1.3402e+00  2.3761e+00  3.4064e-03  2.3142e-03  0:00:17  119
0.

  iter  continuity  x-velocity  y-velocity      energy           k       omega     time/iter
  1882  1.7003e+00  1.2505e+00  1.3480e+00  2.3814e+00  3.4211e-03  2.3200e-03  0:00:13  118
0.
  1883  1.7065e+00  1.2516e+00  1.3555e+00  2.3890e+00  3.4358e-03  2.3253e-03  0:00:34  117
0.
  1884  1.7150e+00  1.2536e+00  1.3626e+00  2.3996e+00  3.4497e-03  2.3310e-03  0:00:27  116
0.
  1885  1.7247e+00  1.2574e+00  1.3696e+00  2.4130e+00  3.4635e-03  2.3357e-03  0:00:21  115
0.
  1886  1.7331e+00  1.2620e+00  1.3770e+00  2.4257e+00  3.4787e-03  2.3409e-03  0:00:17  114
0.
  1887  1.7402e+00  1.2661e+00  1.3845e+00  2.4364e+00  3.4937e-03  2.3460e-03  0:00:13  113
0.
  1888  1.7494e+00  1.2690e+00  1.3916e+00  2.4489e+00  3.5074e-03  2.3509e-03  0:00:33  112
0.
  1889  1.7605e+00  1.2718e+00  1.3984e+00  2.4631e+00  3.5209e-03  2.3552e-03  0:00:26  111
0.
  1890  1.7709e+00  1.2759e+00  1.4056e+00  2.4773e+00  3.5347e-03  2.3592e-03  0:00:21  110
0.
  1891  1.7795e+00  1.2801e+00  1.4136e+00  2.4903e+00  3.5473e-03  2.3623e-03  0:00:16  109
0.
  1892  1.7876e+00  1.2849e+00  1.4227e+00  2.5027e+00  3.5592e-03  2.3650e-03  0:00:13  108
0.

  iter  continuity  x-velocity  y-velocity      energy           k       omega     time/iter
  1893  1.7964e+00  1.2891e+00  1.4325e+00  2.5145e+00  3.5717e-03  2.3687e-03  0:00:10  107
0.
  1894  1.8064e+00  1.2937e+00  1.4423e+00  2.5278e+00  3.5836e-03  2.3701e-03  0:00:29  106
0.
  1895  1.8151e+00  1.2984e+00  1.4521e+00  2.5406e+00  3.5954e-03  2.3722e-03  0:00:23  105
0.
  1896  1.8228e+00  1.3024e+00  1.4622e+00  2.5534e+00  3.6067e-03  2.3763e-03  0:00:18  104
0.
  1897  1.8316e+00  1.3068e+00  1.4730e+00  2.5677e+00  3.6179e-03  2.3807e-03  0:00:15  103
0.
  1898  1.8423e+00  1.3119e+00  1.4845e+00  2.5834e+00  3.6288e-03  2.3853e-03  0:00:12  102
0.
  1899  1.8533e+00  1.3179e+00  1.4958e+00  2.6000e+00  3.6398e-03  2.3905e-03  0:00:29  101
0.
  1900  1.8625e+00  1.3230e+00  1.5064e+00  2.6158e+00  3.6502e-03  2.3948e-03  0:00:23  100
0.
  1901  1.8723e+00  1.3262e+00  1.5168e+00  2.6329e+00  3.6609e-03  2.4011e-03  0:00:18   99
0.
  1902  1.8850e+00  1.3300e+00  1.5268e+00  2.6531e+00  3.6725e-03  2.4085e-03  0:00:15   98
0.
  1903  1.8999e+00  1.3355e+00  1.5367e+00  2.6760e+00  3.6841e-03  2.4157e-03  0:00:12   97
0.

  iter  continuity  x-velocity  y-velocity      energy           k       omega     time/iter
  1904  1.9127e+00  1.3417e+00  1.5469e+00  2.6972e+00  3.6932e-03  2.4209e-03  0:00:09   96
0.
  1905  1.9246e+00  1.3472e+00  1.5562e+00  2.7183e+00  3.7020e-03  2.4274e-03  0:00:26   95
0.
  1906  1.9383e+00  1.3520e+00  1.5644e+00  2.7409e+00  3.7092e-03  2.4331e-03  0:00:21   94
0.
  1907  1.9548e+00  1.3571e+00  1.5711e+00  2.7664e+00  3.7166e-03  2.4367e-03  0:00:16   93
0.
  1908  1.9695e+00  1.3629e+00  1.5770e+00  2.7906e+00  3.7232e-03  2.4406e-03  0:00:13   92
0.
  1909  1.9806e+00  1.3684e+00  1.5834e+00  2.8111e+00  3.7287e-03  2.4432e-03  0:00:10   91
0.
  1910  1.9906e+00  1.3738e+00  1.5904e+00  2.8289e+00  3.7347e-03  2.4462e-03  0:00:08   90
0.
  1911  2.0023e+00  1.3790e+00  1.5976e+00  2.8475e+00  3.7404e-03  2.4470e-03  0:00:24   89
0.
  1912  2.0133e+00  1.3846e+00  1.6046e+00  2.8657e+00  3.7466e-03  2.4494e-03  0:00:19   88
0.
  1913  2.0215e+00  1.3908e+00  1.6125e+00  2.8817e+00  3.7523e-03  2.4542e-03  0:00:15   87
0.
  1914  2.0293e+00  1.3979e+00  1.6221e+00  2.8973e+00  3.7577e-03  2.4582e-03  0:00:12   86
0.

  iter  continuity  x-velocity  y-velocity      energy           k       omega     time/iter
  1915  2.0386e+00  1.4036e+00  1.6330e+00  2.9127e+00  3.7616e-03  2.4606e-03  0:00:09   85
0.
  1916  2.0478e+00  1.4083e+00  1.6443e+00  2.9275e+00  3.7658e-03  2.4642e-03  0:00:24   84
0.
  1917  2.0549e+00  1.4141e+00  1.6567e+00  2.9412e+00  3.7691e-03  2.4659e-03  0:00:19   83
0.
  1918  2.0609e+00  1.4200e+00  1.6716e+00  2.9537e+00  3.7734e-03  2.4688e-03  0:00:15   82
0.
  1919  2.0695e+00  1.4262e+00  1.6870e+00  2.9681e+00  3.7776e-03  2.4706e-03  0:00:12   81
0.
  1920  2.0787e+00  1.4315e+00  1.7023e+00  2.9827e+00  3.7818e-03  2.4733e-03  0:00:09   80
0.
  1921  2.0845e+00  1.4352e+00  1.7183e+00  2.9935e+00  3.7868e-03  2.4763e-03  0:00:23   79
0.
  1922  2.0895e+00  1.4390e+00  1.7356e+00  3.0037e+00  3.7920e-03  2.4783e-03  0:00:18   78
0.
  1923  2.0975e+00  1.4434e+00  1.7542e+00  3.0163e+00  3.7978e-03  2.4801e-03  0:00:15   77
0.
  1924  2.1071e+00  1.4481e+00  1.7728e+00  3.0313e+00  3.8034e-03  2.4834e-03  0:00:11   76
0.
  1925  2.1148e+00  1.4539e+00  1.7911e+00  3.0455e+00  3.8067e-03  2.4854e-03  0:00:09   75
0.

  iter  continuity  x-velocity  y-velocity      energy           k       omega     time/iter
  1926  2.1204e+00  1.4576e+00  1.8094e+00  3.0564e+00  3.8103e-03  2.4873e-03  0:00:22   74
0.
  1927  2.1278e+00  1.4584e+00  1.8276e+00  3.0670e+00  3.8141e-03  2.4881e-03  0:00:17   73
0.
  1928  2.1366e+00  1.4591e+00  1.8456e+00  3.0798e+00  3.8170e-03  2.4901e-03  0:00:14   72
0.
  1929  2.1430e+00  1.4618e+00  1.8648e+00  3.0915e+00  3.8195e-03  2.4926e-03  0:00:11   71
0.
  1930  2.1492e+00  1.4656e+00  1.8850e+00  3.1035e+00  3.8215e-03  2.4942e-03  0:00:09   70
0.
  1931  2.1580e+00  1.4694e+00  1.9054e+00  3.1171e+00  3.8234e-03  2.4958e-03  0:00:07   69
0.
  1932  2.1652e+00  1.4691e+00  1.9247e+00  3.1272e+00  3.8252e-03  2.4955e-03  0:00:19   68
0.
  1933  2.1698e+00  1.4684e+00  1.9422e+00  3.1347e+00  3.8262e-03  2.4946e-03  0:00:15   67
0.
  1934  2.1757e+00  1.4686e+00  1.9585e+00  3.1445e+00  3.8271e-03  2.4939e-03  0:00:12   66
0.
  1935  2.1891e+00  1.4697e+00  1.9723e+00  3.1645e+00  3.8282e-03  2.4907e-03  0:00:09   65
0.
  1936  2.2134e+00  1.4730e+00  1.9816e+00  3.2009e+00  3.8295e-03  2.4857e-03  0:00:07   64
0.

  iter  continuity  x-velocity  y-velocity      energy           k       omega     time/iter
  1937  2.2515e+00  1.4781e+00  1.9816e+00  3.2585e+00  3.8304e-03  2.4807e-03  0:00:18   63
0.
  1938  2.2970e+00  1.4790e+00  1.9711e+00  3.3267e+00  3.8302e-03  2.4772e-03  0:00:14   62
0.
  1939  2.3364e+00  1.4782e+00  1.9534e+00  3.3876e+00  3.8302e-03  2.4688e-03  0:00:11   61
0.
  1940  2.3616e+00  1.4777e+00  1.9345e+00  3.4306e+00  3.8312e-03  2.4615e-03  0:00:09   60
0.
  1941  2.3707e+00  1.4790e+00  1.9194e+00  3.4512e+00  3.8331e-03  2.4543e-03  0:00:07   59
0.
  1942  2.3623e+00  1.4812e+00  1.9074e+00  3.4443e+00  3.8344e-03  2.4461e-03  0:00:06   58
0.
  1943  2.3372e+00  1.4830e+00  1.9010e+00  3.4079e+00  3.8346e-03  2.4351e-03  0:00:16   57
0.
  1944  2.3009e+00  1.4807e+00  1.9021e+00  3.3509e+00  3.8344e-03  2.4327e-03  0:00:12   56
0.
  1945  2.2631e+00  1.4780e+00  1.9111e+00  3.2890e+00  3.8340e-03  2.4293e-03  0:00:10   55
0.
  1946  2.2307e+00  1.4756e+00  1.9233e+00  3.2342e+00  3.8335e-03  2.4240e-03  0:00:08   54
0.
  1947  2.2050e+00  1.4735e+00  1.9350e+00  3.1909e+00  3.8319e-03  2.4178e-03  0:00:06   53
0.

  iter  continuity  x-velocity  y-velocity      energy           k       omega     time/iter
  1948  2.1862e+00  1.4736e+00  1.9446e+00  3.1608e+00  3.8300e-03  2.4117e-03  0:00:05   52
0.
  1949  2.1730e+00  1.4748e+00  1.9535e+00  3.1391e+00  3.8269e-03  2.4065e-03  0:00:14   51
0.
  1950  2.1638e+00  1.4741e+00  1.9614e+00  3.1232e+00  3.8238e-03  2.4018e-03  0:00:11   50
0.
  1951  2.1536e+00  1.4669e+00  1.9713e+00  3.1059e+00  3.8192e-03  2.3967e-03  0:00:09   49
0.
  1952  2.1436e+00  1.4606e+00  1.9817e+00  3.0894e+00  3.8133e-03  2.3941e-03  0:00:07   48
0.
  1953  2.1368e+00  1.4568e+00  1.9912e+00  3.0766e+00  3.8069e-03  2.3916e-03  0:00:05   47
0.
  1954  2.1307e+00  1.4544e+00  1.9983e+00  3.0655e+00  3.8001e-03  2.3887e-03  0:00:13   46
0.
  1955  2.1235e+00  1.4531e+00  2.0023e+00  3.0560e+00  3.7930e-03  2.3845e-03  0:00:10   45
0.
  1956  2.1186e+00  1.4519e+00  2.0040e+00  3.0495e+00  3.7855e-03  2.3801e-03  0:00:08   44
0.
  1957  2.1179e+00  1.4494e+00  2.0051e+00  3.0471e+00  3.7771e-03  2.3769e-03  0:00:06   43
0.
  1958  2.1172e+00  1.4457e+00  2.0060e+00  3.0449e+00  3.7691e-03  2.3741e-03  0:00:05   42
0.

  iter  continuity  x-velocity  y-velocity      energy           k       omega     time/iter
  1959  2.1115e+00  1.4391e+00  2.0066e+00  3.0371e+00  3.7611e-03  2.3744e-03  0:00:12   41
0.
  1960  2.1058e+00  1.4339e+00  2.0060e+00  3.0281e+00  3.7531e-03  2.3703e-03  0:00:09   40
0.
  1961  2.1011e+00  1.4307e+00  2.0040e+00  3.0191e+00  3.7440e-03  2.3679e-03  0:00:07   39
0.
  1962  2.0941e+00  1.4290e+00  1.9986e+00  3.0087e+00  3.7362e-03  2.3652e-03  0:00:06   38
0.
  1963  2.0845e+00  1.4266e+00  1.9932e+00  2.9967e+00  3.7281e-03  2.3655e-03  0:00:04   37
0.
  1964  2.0766e+00  1.4245e+00  1.9892e+00  2.9854e+00  3.7194e-03  2.3631e-03  0:00:03   36
0.
  1965  2.0700e+00  1.4230e+00  1.9862e+00  2.9752e+00  3.7106e-03  2.3596e-03  0:00:10   35
0.
  1966  2.0590e+00  1.4191e+00  1.9844e+00  2.9589e+00  3.7026e-03  2.3587e-03  0:00:08   34
0.
  1967  2.0444e+00  1.4111e+00  1.9820e+00  2.9373e+00  3.6957e-03  2.3595e-03  0:00:06   33
0.
  1968  2.0324e+00  1.4055e+00  1.9777e+00  2.9168e+00  3.6894e-03  2.3592e-03  0:00:05   32
0.
  1969  2.0211e+00  1.4028e+00  1.9732e+00  2.8978e+00  3.6836e-03  2.3596e-03  0:00:04   31
0.

  iter  continuity  x-velocity  y-velocity      energy           k       omega     time/iter
  1970  2.0074e+00  1.3998e+00  1.9694e+00  2.8776e+00  3.6785e-03  2.3588e-03  0:00:09   30
0.
  1971  1.9937e+00  1.3940e+00  1.9660e+00  2.8575e+00  3.6736e-03  2.3569e-03  0:00:07   29
0.
  1972  1.9851e+00  1.3913e+00  1.9624e+00  2.8425e+00  3.6716e-03  2.3564e-03  0:00:05   28
0.
  1973  1.9769e+00  1.3910e+00  1.9580e+00  2.8293e+00  3.6704e-03  2.3544e-03  0:00:04   27
0.
  1974  1.9646e+00  1.3877e+00  1.9533e+00  2.8130e+00  3.6690e-03  2.3514e-03  0:00:03   26
0.
  1975  1.9521e+00  1.3796e+00  1.9478e+00  2.7949e+00  3.6675e-03  2.3475e-03  0:00:02   25
0.
  1976  1.9454e+00  1.3734e+00  1.9410e+00  2.7809e+00  3.6678e-03  2.3449e-03  0:00:07   24
0.
  1977  1.9396e+00  1.3714e+00  1.9335e+00  2.7695e+00  3.6685e-03  2.3414e-03  0:00:05   23
0.
  1978  1.9294e+00  1.3678e+00  1.9262e+00  2.7563e+00  3.6706e-03  2.3395e-03  0:00:04   22
0.
  1979  1.9191e+00  1.3603e+00  1.9184e+00  2.7431e+00  3.6736e-03  2.3366e-03  0:00:03   21
0.
  1980  1.9156e+00  1.3551e+00  1.9102e+00  2.7354e+00  3.6761e-03  2.3328e-03  0:00:02   20
0.

  iter  continuity  x-velocity  y-velocity      energy           k       omega     time/iter
  1981  1.9139e+00  1.3550e+00  1.9013e+00  2.7303e+00  3.6793e-03  2.3287e-03  0:00:06   19
0.
  1982  1.9068e+00  1.3541e+00  1.8913e+00  2.7220e+00  3.6826e-03  2.3249e-03  0:00:04   18
0.
  1983  1.8964e+00  1.3483e+00  1.8819e+00  2.7102e+00  3.6873e-03  2.3208e-03  0:00:03   17
0.
  1984  1.8921e+00  1.3426e+00  1.8733e+00  2.7027e+00  3.6940e-03  2.3175e-03  0:00:02   16
0.
  1985  1.8916e+00  1.3409e+00  1.8655e+00  2.6984e+00  3.7008e-03  2.3150e-03  0:00:02   15
0.
  1986  1.8867e+00  1.3407e+00  1.8572e+00  2.6920e+00  3.7078e-03  2.3111e-03  0:00:01   14
0.
  1987  1.8775e+00  1.3366e+00  1.8473e+00  2.6823e+00  3.7131e-03  2.3066e-03  0:00:04   13
0.
  1988  1.8724e+00  1.3307e+00  1.8364e+00  2.6751e+00  3.7203e-03  2.3040e-03  0:00:03   12
0.
  1989  1.8735e+00  1.3272e+00  1.8263e+00  2.6730e+00  3.7280e-03  2.3010e-03  0:00:02   11
0.
  1990  1.8724e+00  1.3266e+00  1.8167e+00  2.6708e+00  3.7375e-03  2.2985e-03  0:00:01   10
0.
  1991  1.8657e+00  1.3243e+00  1.8067e+00  2.6648e+00  3.7480e-03  2.2963e-03  0:00:01    9
0.

  iter  continuity  x-velocity  y-velocity      energy           k       omega     time/iter
  1992  1.8597e+00  1.3204e+00  1.7959e+00  2.6591e+00  3.7591e-03  2.2936e-03  0:00:01    8
0.
  1993  1.8605e+00  1.3177e+00  1.7841e+00  2.6587e+00  3.7705e-03  2.2929e-03  0:00:02    7
0.
  1994  1.8633e+00  1.3179e+00  1.7735e+00  2.6605e+00  3.7799e-03  2.2915e-03  0:00:01    6
0.
  1995  1.8608e+00  1.3175e+00  1.7630e+00  2.6592e+00  3.7890e-03  2.2897e-03  0:00:01    5
0.
  1996  1.8557e+00  1.3137e+00  1.7518e+00  2.6561e+00  3.7990e-03  2.2879e-03  0:00:01    4
0.
  1997  1.8546e+00  1.3083e+00  1.7401e+00  2.6558e+00  3.8109e-03  2.2867e-03  0:00:00    3
0.
  1998  1.8588e+00  1.3055e+00  1.7281e+00  2.6597e+00  3.8220e-03  2.2868e-03  0:00:01    2
0.
  1999  1.8605e+00  1.3059e+00  1.7173e+00  2.6619e+00  3.8352e-03  2.2871e-03  0:00:00    1
0.
  2000  1.8564e+00  1.3052e+00  1.7071e+00  2.6593e+00  3.8481e-03  2.2863e-03  0:00:00    0
Writing "| gzip -2cf > SolutionMonitor.gz"...
Writing temporary file C:\\Users\\deubanks\\AppData\\Local\\Temp\\flntgz-73243 ...
Done.

Writing data to \\\\nas01.itap.purdue.edu\\puhome\\desktop\\412GIT\\AAE412_Project\\ANSYS_Files\\NozzleC\\NozzleC_files\\dp0\\FFF-6\\Fluent\\FFF-6.1.ip ...
	x-coord
	y-coord
	pressure
	x-velocity
	y-velocity
	temperature
	k
	omega
Done.
Writing "| gzip -2cf > FFF-6.1-15.cas.gz"...
Writing temporary file C:\\Users\\deubanks\\AppData\\Local\\Temp\\flntgz-73244 ...
  164400 quadrilateral cells, zone  3, binary.
  164400 cell partition ids, zone  3, 6 partitions, binary.
  326380 2D interior faces, zone  1, binary.
     410 2D interior faces, zone  2, binary.
    1680 2D wall faces, zone  6, binary.
      80 2D pressure-inlet faces, zone  7, binary.
    1680 2D axis faces, zone  8, binary.
     430 2D pressure-far-field faces, zone  9, binary.
     150 2D velocity-inlet faces, zone 10, binary.
  166411 nodes, binary.
  166411 node flags, binary.
Done.

Writing "| gzip -2cf > FFF-6.1-15-02000.dat.gz"...
Writing temporary file C:\\Users\\deubanks\\AppData\\Local\\Temp\\flntgz-73245 ...
Done.


Performance Timer for 2000 iterations on 6 compute nodes
  Average wall-clock time per iteration:              0.154 sec
  Global reductions per iteration:                       84 ops
  Global reductions time per iteration:               0.000 sec (0.0%)
  Message count per iteration:                          413 messages
  Data transfer per iteration:                        0.870 MB
  LE solves per iteration:                                2 solves
  LE wall-clock time per iteration:                   0.006 sec (3.9%)
  LE global solves per iteration:                         0 solves
  LE global wall-clock time per iteration:            0.000 sec (0.0%)
  LE global matrix maximum size:                         0
  AMG cycles per iteration:                           2.000 cycles
  Relaxation sweeps per iteration:                        8 sweeps
  Relaxation exchanges per iteration:                     0 exchanges
  LE early protections (stall) per iteration:           0.000 times
  LE early protections (divergence) per iteration:      0.000 times

  Total wall-clock time:                            307.117 sec

