
Build Time: Apr 16 2019 10:49:06 
Executable Path: C:/PROGRA~1/ANSYSI~1/v194/fluent/ntbin/win64/fluent.exe

-------------------------------------------------------------------------------
ID    Hostname        Core  O.S.         PID    Vendor                    
-------------------------------------------------------------------------------
n3    X-ARMS2106PC57  4/12  Windows-x64  14384  Intel(R) Core(TM) i7-8700 
n2    X-ARMS2106PC57  3/12  Windows-x64  14224  Intel(R) Core(TM) i7-8700 
n1    X-ARMS2106PC57  2/12  Windows-x64  12824  Intel(R) Core(TM) i7-8700 
n0*   X-ARMS2106PC57  1/12  Windows-x64  3352   Intel(R) Core(TM) i7-8700 
host  X-ARMS2106PC57        Windows-x64  3340   Intel(R) Core(TM) i7-8700 

MPI Option Selected: ibmmpi
Selected system interconnect: default
-------------------------------------------------------------------------------
Warning: Ignoring WB preference save-post-processing-images
Multicore SMT processors detected. Processor affinity set!
Reading "\"| gunzip -c \\"W:\Documents\AAE412finalproj_files\dp0\FFF\Fluent\FFF-Setup-Output.cas.gz\\"\""...
Buffering for file scan...



   14900 quadrilateral cells, zone  3, binary.
   29259 2D interior faces, zone  1, binary.
     220 2D interior faces, zone  2, binary.
     100 2D velocity-inlet faces, zone  6, binary.
     231 2D wall faces, zone  7, binary.
     190 2D axis faces, zone  8, binary.
      20 2D velocity-inlet faces, zone  9, binary.
     101 2D wall faces, zone 10, binary.
   15222 nodes, binary.
15222 node flags, binary.

Building...
     mesh
	auto partitioning mesh by Metis (fast),
	distributing mesh
		parts....,
		faces....,
		nodes....,
		cells....,
        bandwidth reduction using Reverse Cuthill-McKee: 3725/63 = 59.127
     materials,
     interface,
     domains,
	mixture
     zones,
	nozzlewall
	flowinlet
	axis
	farfield
	ambientinlet
	surface_body
	interior-surface_body
	solid-surface_bodySetting solid-surface_body (mixture) ... Done.
 Setting zone id of solid-surface_body to 3.
 Setting zone id of interior-surface_body to 1.
 Setting zone id of surface_body to 2.
 Setting zone id of ambientinlet to 6.
 Setting zone id of farfield to 7.
 Setting zone id of axis to 8.
 Setting zone id of flowinlet to 9.
 Setting zone id of nozzlewall to 10.
Done.
Setting solid-surface_body (mixture) ... Done.
Setting ambientinlet (mixture) (zone type changed to pressure-inlet) ... Done.
Setting farfield (mixture) (zone type changed to pressure-outlet) ... Done.
Setting flowinlet (mixture) (zone type changed to pressure-inlet) ... Done.
Setting interior-surface_body (mixture) ... Done.
Setting surface_body (mixture) ... Done.
Setting axis (mixture) ... Done.
Setting nozzlewall (mixture) ... Done.

     parallel,
Done.

Preparing mesh for display...
Warning: The use of axis boundary conditions is not appropriate for
         a 2D/3D flow problem. Please consider changing the zone
         type to symmetry or wall, or the problem to axisymmetric.

Warning: The use of axis boundary conditions is not appropriate for
         a 2D/3D flow problem. Please consider changing the zone
         type to symmetry or wall, or the problem to axisymmetric.

Done.
Warning: The use of axis boundary conditions is not appropriate for
         a 2D/3D flow problem. Please consider changing the zone
         type to symmetry or wall, or the problem to axisymmetric.

Reading "\"| gunzip -c \\"W:\Documents\AAE412finalproj_files\dp0\FFF\Fluent\FFF-1-01000.dat.gz\\"\""...


Parallel variables...
Done.

  iter  continuity  x-velocity  y-velocity      energy     time/iter
  1000  7.5764e-02  1.0081e-02  5.0999e-03  1.5459e-16  0:00:00 1000

 Reversed flow on 64 faces (22.7% area) of pressure-inlet 6.

 Reversed flow on 111 faces (41.9% area) of pressure-outlet 7.
  1001  7.1083e-02  1.0008e-02  5.1612e-03  1.5598e-16  0:00:00  999

 Reversed flow on 65 faces (23.7% area) of pressure-inlet 6.

 Reversed flow on 111 faces (37.3% area) of pressure-outlet 7.
  1002  7.0839e-02  9.9665e-03  5.1995e-03  1.5422e-16  0:00:00  998

 Reversed flow on 65 faces (23.7% area) of pressure-inlet 6.

 Reversed flow on 110 faces (35.5% area) of pressure-outlet 7.
  1003  7.2055e-02  9.6897e-03  5.2028e-03  1.5651e-16  0:00:00  997

 Reversed flow on 67 faces (25.8% area) of pressure-inlet 6.

 Reversed flow on 106 faces (33.8% area) of pressure-outlet 7.
  1004  6.9225e-02  9.6267e-03  5.2298e-03  1.5312e-16  0:00:00  996

 Reversed flow on 68 faces (26.9% area) of pressure-inlet 6.

 Reversed flow on 97 faces (31.0% area) of pressure-outlet 7.
  1005  7.3307e-02  9.2358e-03  5.2069e-03  1.5652e-16  0:00:00  995

 Reversed flow on 68 faces (27.0% area) of pressure-inlet 6.

 Reversed flow on 114 faces (35.8% area) of pressure-outlet 7.
  1006  6.6625e-02  9.0275e-03  5.1948e-03  1.5251e-16  0:00:00  994

 Reversed flow on 67 faces (26.8% area) of pressure-inlet 6.

 Reversed flow on 111 faces (33.0% area) of pressure-outlet 7.
  1007  6.8781e-02  8.6734e-03  5.1751e-03  1.5153e-16  0:00:00  993

 Reversed flow on 66 faces (25.8% area) of pressure-inlet 6.

 Reversed flow on 116 faces (38.7% area) of pressure-outlet 7.
  1008  7.3435e-02  8.4070e-03  5.1192e-03  1.5577e-16  0:00:00  992

 Reversed flow on 67 faces (26.8% area) of pressure-inlet 6.

 Reversed flow on 127 faces (43.3% area) of pressure-outlet 7.
  1009  7.2759e-02  8.0211e-03  5.1136e-03  1.5008e-16  0:00:00  991

 Reversed flow on 66 faces (25.7% area) of pressure-inlet 6.

 Reversed flow on 125 faces (43.8% area) of pressure-outlet 7.
  1010  7.7854e-02  7.8200e-03  5.0445e-03  1.5255e-16  0:00:00  990

 Reversed flow on 66 faces (25.7% area) of pressure-inlet 6.

 Reversed flow on 119 faces (41.8% area) of pressure-outlet 7.

  iter  continuity  x-velocity  y-velocity      energy     time/iter
  1011  7.3604e-02  7.6811e-03  4.9998e-03  1.5877e-16  0:00:00  989

 Reversed flow on 66 faces (24.7% area) of pressure-inlet 6.

 Reversed flow on 123 faces (49.3% area) of pressure-outlet 7.
  1012  7.4005e-02  7.3429e-03  4.9829e-03  1.5709e-16  0:00:00  988

 Reversed flow on 66 faces (24.7% area) of pressure-inlet 6.

 Reversed flow on 125 faces (42.5% area) of pressure-outlet 7.
  1013  7.2862e-02  7.2357e-03  4.9146e-03  1.5858e-16  0:00:00  987

 Reversed flow on 64 faces (22.6% area) of pressure-inlet 6.

 Reversed flow on 134 faces (48.0% area) of pressure-outlet 7.
  1014  8.5473e-02  7.1436e-03  4.8352e-03  1.5696e-16  0:16:26  986

 Reversed flow on 63 faces (21.7% area) of pressure-inlet 6.

 Reversed flow on 129 faces (44.1% area) of pressure-outlet 7.
  1015  8.2538e-02  7.2007e-03  4.7917e-03  1.6110e-16  0:13:08  985

 Reversed flow on 62 faces (20.8% area) of pressure-inlet 6.

 Reversed flow on 113 faces (41.9% area) of pressure-outlet 7.
  1016  8.6889e-02  7.0529e-03  4.7298e-03  1.5925e-16  0:10:30  984

 Reversed flow on 61 faces (19.9% area) of pressure-inlet 6.

 Reversed flow on 121 faces (47.3% area) of pressure-outlet 7.
  1017  7.2249e-02  6.9073e-03  4.6610e-03  1.5687e-16  0:08:23  983

 Reversed flow on 60 faces (19.0% area) of pressure-inlet 6.

 Reversed flow on 113 faces (40.6% area) of pressure-outlet 7.
  1018  6.9941e-02  6.9340e-03  4.5848e-03  1.5704e-16  0:06:42  982

 Reversed flow on 60 faces (19.0% area) of pressure-inlet 6.

 Reversed flow on 109 faces (46.9% area) of pressure-outlet 7.
  1019  6.6836e-02  6.9735e-03  4.5081e-03  1.5958e-16  0:05:21  981

 Reversed flow on 58 faces (17.4% area) of pressure-inlet 6.

 Reversed flow on 95 faces (42.4% area) of pressure-outlet 7.
  1020  7.4152e-02  7.0457e-03  4.4268e-03  1.6064e-16  0:04:17  980

 Reversed flow on 57 faces (16.7% area) of pressure-inlet 6.

 Reversed flow on 85 faces (40.6% area) of pressure-outlet 7.
  1021  6.9342e-02  7.1388e-03  4.3464e-03  1.5868e-16  0:03:25  979

 Reversed flow on 56 faces (16.0% area) of pressure-inlet 6.

 Reversed flow on 101 faces (43.3% area) of pressure-outlet 7.

  iter  continuity  x-velocity  y-velocity      energy     time/iter
  1022  6.6366e-02  7.1303e-03  4.2854e-03  1.5736e-16  0:02:44  978

 Reversed flow on 56 faces (16.0% area) of pressure-inlet 6.

 Reversed flow on 107 faces (46.3% area) of pressure-outlet 7.
  1023  6.1624e-02  7.1323e-03  4.2742e-03  1.5819e-16  0:02:11  977

 Reversed flow on 55 faces (15.3% area) of pressure-inlet 6.

 Reversed flow on 107 faces (43.6% area) of pressure-outlet 7.
  1024  6.7243e-02  7.1372e-03  4.2628e-03  1.5793e-16  0:01:45  976

 Reversed flow on 54 faces (14.6% area) of pressure-inlet 6.

 Reversed flow on 111 faces (42.1% area) of pressure-outlet 7.
  1025  6.4743e-02  7.1216e-03  4.2740e-03  1.6073e-16  0:01:24  975

 Reversed flow on 53 faces (14.0% area) of pressure-inlet 6.

 Reversed flow on 111 faces (41.9% area) of pressure-outlet 7.
  1026  6.4923e-02  7.0468e-03  4.3126e-03  1.6080e-16  0:01:07  974

 Reversed flow on 52 faces (13.3% area) of pressure-inlet 6.

 Reversed flow on 104 faces (37.6% area) of pressure-outlet 7.
  1027  6.5072e-02  7.0934e-03  4.3815e-03  1.6430e-16  0:00:53  973

 Reversed flow on 51 faces (12.7% area) of pressure-inlet 6.

 Reversed flow on 93 faces (39.0% area) of pressure-outlet 7.
  1028  7.0089e-02  7.1225e-03  4.4265e-03  1.6341e-16  0:00:43  972

 Reversed flow on 50 faces (12.2% area) of pressure-inlet 6.

 Reversed flow on 97 faces (48.7% area) of pressure-outlet 7.
  1029  7.1519e-02  7.2752e-03  4.4763e-03  1.6645e-16  0:00:34  971

 Reversed flow on 49 faces (11.6% area) of pressure-inlet 6.

 Reversed flow on 116 faces (50.6% area) of pressure-outlet 7.
  1030  7.1307e-02  7.3819e-03  4.5685e-03  1.6544e-16  0:00:27  970

 Reversed flow on 48 faces (11.1% area) of pressure-inlet 6.

 Reversed flow on 114 faces (51.2% area) of pressure-outlet 7.
  1031  7.5119e-02  7.4821e-03  4.6728e-03  1.6077e-16  0:00:22  969

 Reversed flow on 47 faces (10.6% area) of pressure-inlet 6.

 Reversed flow on 102 faces (52.8% area) of pressure-outlet 7.
  1032  7.3956e-02  7.6420e-03  4.7962e-03  1.6099e-16  0:00:17  968

 Reversed flow on 46 faces (10.1% area) of pressure-inlet 6.

 Reversed flow on 98 faces (54.9% area) of pressure-outlet 7.

  iter  continuity  x-velocity  y-velocity      energy     time/iter
  1033  7.7186e-02  7.7845e-03  4.9088e-03  1.5821e-16  0:00:14  967

 Reversed flow on 45 faces (9.6% area) of pressure-inlet 6.

 Reversed flow on 114 faces (54.7% area) of pressure-outlet 7.
  1034  7.6057e-02  8.0024e-03  5.0032e-03  1.5894e-16  0:00:11  966

 Reversed flow on 44 faces (9.2% area) of pressure-inlet 6.

 Reversed flow on 108 faces (54.0% area) of pressure-outlet 7.
  1035  8.5083e-02  8.1785e-03  5.1184e-03  1.5267e-16  0:00:09  965

 Reversed flow on 43 faces (8.8% area) of pressure-inlet 6.

 Reversed flow on 93 faces (50.0% area) of pressure-outlet 7.
  1036  9.7191e-02  8.4650e-03  5.2293e-03  1.5507e-16  0:00:07  964

 Reversed flow on 43 faces (8.8% area) of pressure-inlet 6.

 Reversed flow on 99 faces (43.1% area) of pressure-outlet 7.
  1037  8.3045e-02  8.7728e-03  5.3084e-03  1.5545e-16  0:00:06  963

 Reversed flow on 42 faces (8.3% area) of pressure-inlet 6.

 Reversed flow on 103 faces (40.1% area) of pressure-outlet 7.
  1038  7.4862e-02  8.9675e-03  5.3489e-03  1.5539e-16  0:03:17  962

 Reversed flow on 41 faces (7.9% area) of pressure-inlet 6.

 Reversed flow on 94 faces (36.1% area) of pressure-outlet 7.
  1039  7.5763e-02  9.2231e-03  5.3381e-03  1.5158e-16  0:02:37  961

 Reversed flow on 40 faces (7.6% area) of pressure-inlet 6.

 Reversed flow on 75 faces (19.7% area) of pressure-outlet 7.
  1040  6.9125e-02  9.4738e-03  5.3384e-03  1.4975e-16  0:02:06  960

 Reversed flow on 40 faces (7.6% area) of pressure-inlet 6.

 Reversed flow on 76 faces (17.2% area) of pressure-outlet 7.
  1041  7.0400e-02  9.6144e-03  5.3960e-03  1.5251e-16  0:01:41  959

 Reversed flow on 39 faces (7.2% area) of pressure-inlet 6.

 Reversed flow on 71 faces (17.9% area) of pressure-outlet 7.
  1042  6.6244e-02  9.7356e-03  5.4009e-03  1.5296e-16  0:01:20  958

 Reversed flow on 39 faces (7.2% area) of pressure-inlet 6.

 Reversed flow on 67 faces (14.5% area) of pressure-outlet 7.
  1043  8.9544e-02  9.8522e-03  5.4013e-03  1.5054e-16  0:01:04  957

 Reversed flow on 38 faces (6.8% area) of pressure-inlet 6.

 Reversed flow on 86 faces (16.2% area) of pressure-outlet 7.

  iter  continuity  x-velocity  y-velocity      energy     time/iter
  1044  7.3997e-02  9.9504e-03  5.4440e-03  1.4973e-16  0:00:51  956

 Reversed flow on 38 faces (6.8% area) of pressure-inlet 6.

 Reversed flow on 70 faces (14.2% area) of pressure-outlet 7.
  1045  6.8738e-02  9.9039e-03  5.4164e-03  1.5095e-16  0:00:41  955

 Reversed flow on 37 faces (6.5% area) of pressure-inlet 6.

 Reversed flow on 76 faces (15.8% area) of pressure-outlet 7.
  1046  6.8684e-02  9.8583e-03  5.3834e-03  1.4604e-16  0:00:33  954

 Reversed flow on 37 faces (6.5% area) of pressure-inlet 6.

 Reversed flow on 73 faces (13.8% area) of pressure-outlet 7.
  1047  6.9677e-02  9.8825e-03  5.3854e-03  1.5044e-16  0:00:26  953

 Reversed flow on 37 faces (6.5% area) of pressure-inlet 6.

 Reversed flow on 93 faces (20.0% area) of pressure-outlet 7.
  1048  7.2492e-02  9.9753e-03  5.2917e-03  1.5318e-16  0:00:21  952

 Reversed flow on 37 faces (6.5% area) of pressure-inlet 6.

 Reversed flow on 78 faces (14.4% area) of pressure-outlet 7.
  1049  6.8873e-02  1.0039e-02  5.2398e-03  1.5309e-16  0:00:17  951

 Reversed flow on 38 faces (6.8% area) of pressure-inlet 6.

 Reversed flow on 97 faces (22.6% area) of pressure-outlet 7.
  1050  7.9542e-02  1.0070e-02  5.2719e-03  1.5400e-16  0:00:13  950

 Reversed flow on 38 faces (6.8% area) of pressure-inlet 6.

 Reversed flow on 87 faces (22.5% area) of pressure-outlet 7.
  1051  7.9022e-02  1.0071e-02  5.1961e-03  1.5818e-16  0:00:11  949

 Reversed flow on 39 faces (7.2% area) of pressure-inlet 6.

 Reversed flow on 65 faces (22.5% area) of pressure-outlet 7.
  1052  7.0167e-02  1.0173e-02  5.1525e-03  1.5842e-16  0:00:09  948

 Reversed flow on 40 faces (7.6% area) of pressure-inlet 6.

 Reversed flow on 99 faces (34.7% area) of pressure-outlet 7.
  1053  6.9238e-02  1.0227e-02  5.1561e-03  1.6212e-16  0:00:07  947

 Reversed flow on 41 faces (7.9% area) of pressure-inlet 6.

 Reversed flow on 106 faces (44.9% area) of pressure-outlet 7.
  1054  6.5774e-02  1.0262e-02  5.1315e-03  1.6185e-16  0:00:05  946

 Reversed flow on 42 faces (8.3% area) of pressure-inlet 6.

 Reversed flow on 109 faces (45.9% area) of pressure-outlet 7.

  iter  continuity  x-velocity  y-velocity      energy     time/iter
  1055  6.8025e-02  1.0282e-02  5.1300e-03  1.6308e-16  0:00:04  945

 Reversed flow on 43 faces (8.8% area) of pressure-inlet 6.

 Reversed flow on 101 faces (48.0% area) of pressure-outlet 7.
  1056  6.8524e-02  1.0279e-02  5.1224e-03  1.6322e-16  0:00:03  944

 Reversed flow on 45 faces (9.6% area) of pressure-inlet 6.

 Reversed flow on 95 faces (48.1% area) of pressure-outlet 7.
  1057  7.2576e-02  1.0282e-02  5.1228e-03  1.6361e-16  0:00:03  943

 Reversed flow on 46 faces (10.1% area) of pressure-inlet 6.

 Reversed flow on 94 faces (48.5% area) of pressure-outlet 7.
  1058  7.1152e-02  1.0272e-02  5.1056e-03  1.6373e-16  0:00:02  942

 Reversed flow on 48 faces (11.1% area) of pressure-inlet 6.

 Reversed flow on 107 faces (52.5% area) of pressure-outlet 7.
  1059  7.3035e-02  1.0289e-02  5.1093e-03  1.6108e-16  0:00:02  941

 Reversed flow on 49 faces (11.6% area) of pressure-inlet 6.

 Reversed flow on 118 faces (54.9% area) of pressure-outlet 7.
  1060  7.1151e-02  1.0329e-02  5.0938e-03  1.7230e-16  0:00:01  940

 Reversed flow on 51 faces (12.7% area) of pressure-inlet 6.

 Reversed flow on 122 faces (57.4% area) of pressure-outlet 7.
  1061  7.1045e-02  1.0381e-02  5.0884e-03  1.6823e-16  0:00:01  939

 Reversed flow on 51 faces (12.7% area) of pressure-inlet 6.

 Reversed flow on 120 faces (58.8% area) of pressure-outlet 7.
  1062  7.3598e-02  1.0433e-02  5.1284e-03  1.6983e-16  0:00:01  938

 Reversed flow on 52 faces (13.3% area) of pressure-inlet 6.

 Reversed flow on 111 faces (60.9% area) of pressure-outlet 7.
  1063  6.7156e-02  1.0461e-02  5.1124e-03  1.6993e-16  0:03:08  937

 Reversed flow on 50 faces (12.7% area) of pressure-inlet 6.

 Reversed flow on 115 faces (62.0% area) of pressure-outlet 7.
  1064  6.7000e-02  1.0511e-02  5.1028e-03  1.6720e-16  0:02:30  936

 Reversed flow on 51 faces (12.7% area) of pressure-inlet 6.

 Reversed flow on 112 faces (60.0% area) of pressure-outlet 7.
  1065  7.2551e-02  1.0540e-02  5.1471e-03  1.6395e-16  0:02:00  935

 Reversed flow on 50 faces (12.2% area) of pressure-inlet 6.

 Reversed flow on 114 faces (57.8% area) of pressure-outlet 7.

  iter  continuity  x-velocity  y-velocity      energy     time/iter
  1066  7.2024e-02  1.0539e-02  5.0886e-03  1.6330e-16  0:01:36  934

 Reversed flow on 50 faces (12.2% area) of pressure-inlet 6.

 Reversed flow on 114 faces (61.0% area) of pressure-outlet 7.
  1067  7.2907e-02  1.0538e-02  5.0670e-03  1.5802e-16  0:01:17  933

 Reversed flow on 48 faces (11.1% area) of pressure-inlet 6.

 Reversed flow on 114 faces (65.7% area) of pressure-outlet 7.
  1068  7.4610e-02  1.0592e-02  4.9968e-03  1.5534e-16  0:01:01  932

 Reversed flow on 47 faces (10.6% area) of pressure-inlet 6.

 Reversed flow on 115 faces (65.6% area) of pressure-outlet 7.
  1069  7.5376e-02  1.0621e-02  4.9521e-03  1.5560e-16  0:00:49  931

 Reversed flow on 45 faces (9.6% area) of pressure-inlet 6.

 Reversed flow on 128 faces (64.4% area) of pressure-outlet 7.
  1070  7.2561e-02  1.0860e-02  4.8460e-03  1.5413e-16  0:00:39  930

 Reversed flow on 50 faces (14.9% area) of pressure-inlet 6.

 Reversed flow on 111 faces (55.5% area) of pressure-outlet 7.
  1071  7.6378e-02  1.1031e-02  4.8308e-03  1.5262e-16  0:00:31  929

 Reversed flow on 50 faces (16.2% area) of pressure-inlet 6.

 Reversed flow on 102 faces (44.4% area) of pressure-outlet 7.
  1072  6.6553e-02  1.1079e-02  4.7284e-03  1.5414e-16  0:00:25  928

 Reversed flow on 49 faces (17.0% area) of pressure-inlet 6.

 Reversed flow on 116 faces (45.6% area) of pressure-outlet 7.
  1073  6.3571e-02  1.0951e-02  4.6192e-03  1.5394e-16  0:00:20  927

 Reversed flow on 51 faces (20.2% area) of pressure-inlet 6.

 Reversed flow on 70 faces (28.4% area) of pressure-outlet 7.
  1074  6.1631e-02  1.0762e-02  4.5196e-03  1.5203e-16  0:00:16  926

 Reversed flow on 51 faces (21.5% area) of pressure-inlet 6.

 Reversed flow on 102 faces (28.7% area) of pressure-outlet 7.
  1075  5.4472e-02  1.0517e-02  4.4403e-03  1.5267e-16  0:00:13  925

 Reversed flow on 49 faces (22.7% area) of pressure-inlet 6.

 Reversed flow on 79 faces (24.5% area) of pressure-outlet 7.
  1076  5.0980e-02  1.0181e-02  4.3534e-03  1.4990e-16  0:00:10  924

 Reversed flow on 48 faces (23.8% area) of pressure-inlet 6.

 Reversed flow on 99 faces (24.0% area) of pressure-outlet 7.

  iter  continuity  x-velocity  y-velocity      energy     time/iter
  1077  5.6992e-02  9.8257e-03  4.2423e-03  1.5267e-16  0:00:08  923

 Reversed flow on 46 faces (24.6% area) of pressure-inlet 6.

 Reversed flow on 80 faces (16.0% area) of pressure-outlet 7.
  1078  4.7635e-02  9.4674e-03  4.1602e-03  1.5396e-16  0:00:07  922

 Reversed flow on 44 faces (25.0% area) of pressure-inlet 6.

 Reversed flow on 95 faces (19.0% area) of pressure-outlet 7.
  1079  5.2405e-02  9.0912e-03  4.0337e-03  1.5082e-16  0:00:05  921

 Reversed flow on 41 faces (26.0% area) of pressure-inlet 6.

 Reversed flow on 76 faces (14.0% area) of pressure-outlet 7.
  1080  5.0820e-02  8.7220e-03  3.9525e-03  1.5176e-16  0:00:04  920

 Reversed flow on 21 faces (25.1% area) of pressure-inlet 6.

 Reversed flow on 87 faces (19.5% area) of pressure-outlet 7.
  1081  4.7389e-02  8.3824e-03  3.8720e-03  1.5254e-16  0:00:03  919

 Reversed flow on 21 faces (26.1% area) of pressure-inlet 6.

 Reversed flow on 86 faces (16.6% area) of pressure-outlet 7.
  1082  4.7312e-02  8.0768e-03  3.8096e-03  1.4907e-16  0:00:03  918

 Reversed flow on 22 faces (27.9% area) of pressure-inlet 6.

 Reversed flow on 77 faces (17.4% area) of pressure-outlet 7.
  1083  4.8927e-02  7.7937e-03  3.7591e-03  1.5004e-16  0:00:02  917

 Reversed flow on 22 faces (29.1% area) of pressure-inlet 6.

 Reversed flow on 77 faces (15.9% area) of pressure-outlet 7.
  1084  5.5172e-02  7.5317e-03  3.7139e-03  1.5183e-16  0:00:02  916

 Reversed flow on 22 faces (30.2% area) of pressure-inlet 6.

 Reversed flow on 82 faces (25.5% area) of pressure-outlet 7.
  1085  6.1912e-02  7.3019e-03  3.6655e-03  1.5770e-16  0:00:01  915

 Reversed flow on 22 faces (31.5% area) of pressure-inlet 6.

 Reversed flow on 92 faces (38.3% area) of pressure-outlet 7.
  1086  5.9984e-02  7.1347e-03  3.6198e-03  1.5536e-16  0:00:01  914

 Reversed flow on 23 faces (33.7% area) of pressure-inlet 6.

 Reversed flow on 98 faces (32.6% area) of pressure-outlet 7.
  1087  5.4735e-02  6.9322e-03  3.5586e-03  1.5408e-16  0:00:01  913

 Reversed flow on 23 faces (35.0% area) of pressure-inlet 6.

 Reversed flow on 81 faces (43.1% area) of pressure-outlet 7.

  iter  continuity  x-velocity  y-velocity      energy     time/iter
  1088  5.8721e-02  6.7697e-03  3.5031e-03  1.5271e-16  0:03:03  912

 Reversed flow on 23 faces (36.4% area) of pressure-inlet 6.

 Reversed flow on 92 faces (42.6% area) of pressure-outlet 7.
  1089  6.2683e-02  6.6664e-03  3.4420e-03  1.5588e-16  0:02:26  911

 Reversed flow on 22 faces (35.4% area) of pressure-inlet 6.

 Reversed flow on 97 faces (44.8% area) of pressure-outlet 7.
  1090  4.6284e-02  6.6424e-03  3.3773e-03  1.5636e-16  0:01:57  910

 Reversed flow on 22 faces (36.9% area) of pressure-inlet 6.

 Reversed flow on 95 faces (42.1% area) of pressure-outlet 7.
  1091  5.2543e-02  6.6185e-03  3.3302e-03  1.5661e-16  0:01:33  909

 Reversed flow on 21 faces (35.8% area) of pressure-inlet 6.

 Reversed flow on 102 faces (46.7% area) of pressure-outlet 7.
  1092  4.5338e-02  6.5957e-03  3.3018e-03  1.5704e-16  0:01:15  908

 Reversed flow on 21 faces (37.2% area) of pressure-inlet 6.

 Reversed flow on 94 faces (48.9% area) of pressure-outlet 7.
  1093  5.2036e-02  6.6079e-03  3.2688e-03  1.5770e-16  0:01:00  907

 Reversed flow on 24 faces (37.8% area) of pressure-inlet 6.

 Reversed flow on 86 faces (45.7% area) of pressure-outlet 7.
  1094  5.1449e-02  6.6421e-03  3.2404e-03  1.5646e-16  0:00:48  906

 Reversed flow on 26 faces (40.6% area) of pressure-inlet 6.

 Reversed flow on 84 faces (46.4% area) of pressure-outlet 7.
  1095  4.5252e-02  6.6820e-03  3.2276e-03  1.5709e-16  0:00:38  905

 Reversed flow on 31 faces (45.7% area) of pressure-inlet 6.

 Reversed flow on 86 faces (48.4% area) of pressure-outlet 7.
  1096  4.3672e-02  6.7093e-03  3.2209e-03  1.5610e-16  0:00:30  904

 Reversed flow on 32 faces (43.2% area) of pressure-inlet 6.

 Reversed flow on 103 faces (53.7% area) of pressure-outlet 7.
  1097  4.7158e-02  6.7391e-03  3.2194e-03  1.5781e-16  0:00:24  903

 Reversed flow on 34 faces (40.7% area) of pressure-inlet 6.

 Reversed flow on 113 faces (54.9% area) of pressure-outlet 7.
  1098  4.8037e-02  6.7528e-03  3.2137e-03  1.5977e-16  0:00:19  902

 Reversed flow on 78 faces (47.3% area) of pressure-inlet 6.

 Reversed flow on 117 faces (58.4% area) of pressure-outlet 7.

  iter  continuity  x-velocity  y-velocity      energy     time/iter
  1099  4.9508e-02  6.7704e-03  3.1895e-03  1.6203e-16  0:00:16  901

 Reversed flow on 64 faces (40.4% area) of pressure-inlet 6.

 Reversed flow on 98 faces (57.3% area) of pressure-outlet 7.
  1100  4.8870e-02  6.8000e-03  3.1759e-03  1.6116e-16  0:00:12  900

 Reversed flow on 68 faces (28.3% area) of pressure-inlet 6.

 Reversed flow on 104 faces (56.5% area) of pressure-outlet 7.
  1101  5.1793e-02  6.8542e-03  3.1539e-03  1.6561e-16  0:00:10  899

 Reversed flow on 67 faces (25.8% area) of pressure-inlet 6.

 Reversed flow on 110 faces (57.4% area) of pressure-outlet 7.
  1102  5.2930e-02  6.9049e-03  3.1489e-03  1.6270e-16  0:00:08  898

 Reversed flow on 65 faces (23.6% area) of pressure-inlet 6.

 Reversed flow on 111 faces (63.7% area) of pressure-outlet 7.
  1103  5.4408e-02  6.9660e-03  3.1417e-03  1.5880e-16  0:00:06  897

 Reversed flow on 64 faces (22.6% area) of pressure-inlet 6.

 Reversed flow on 93 faces (56.1% area) of pressure-outlet 7.
  1104  5.1544e-02  7.0449e-03  3.1242e-03  1.6157e-16  0:00:05  896

 Reversed flow on 63 faces (21.7% area) of pressure-inlet 6.

 Reversed flow on 114 faces (58.4% area) of pressure-outlet 7.
  1105  5.1502e-02  7.1306e-03  3.1345e-03  1.6272e-16  0:00:04  895

 Reversed flow on 61 faces (19.9% area) of pressure-inlet 6.

 Reversed flow on 108 faces (59.1% area) of pressure-outlet 7.
  1106  4.9797e-02  7.2282e-03  3.1400e-03  1.6030e-16  0:00:03  894

 Reversed flow on 60 faces (19.0% area) of pressure-inlet 6.

 Reversed flow on 111 faces (61.3% area) of pressure-outlet 7.
  1107  4.9985e-02  7.3114e-03  3.1965e-03  1.6039e-16  0:00:03  893

 Reversed flow on 59 faces (18.2% area) of pressure-inlet 6.

 Reversed flow on 99 faces (61.7% area) of pressure-outlet 7.
  1108  4.8741e-02  7.4021e-03  3.2526e-03  1.6075e-16  0:00:02  892

 Reversed flow on 58 faces (17.4% area) of pressure-inlet 6.

 Reversed flow on 104 faces (64.6% area) of pressure-outlet 7.
  1109  4.9129e-02  7.4684e-03  3.3055e-03  1.5857e-16  0:00:02  891

 Reversed flow on 57 faces (16.7% area) of pressure-inlet 6.

 Reversed flow on 109 faces (65.3% area) of pressure-outlet 7.

  iter  continuity  x-velocity  y-velocity      energy     time/iter
  1110  4.9018e-02  7.5182e-03  3.3618e-03  1.5675e-16  0:00:01  890

 Reversed flow on 56 faces (16.0% area) of pressure-inlet 6.

 Reversed flow on 115 faces (69.1% area) of pressure-outlet 7.
  1111  4.8596e-02  7.5602e-03  3.3842e-03  1.6008e-16  0:00:01  889

 Reversed flow on 55 faces (15.3% area) of pressure-inlet 6.

 Reversed flow on 117 faces (69.1% area) of pressure-outlet 7.
  1112  4.8864e-02  7.6110e-03  3.4227e-03  1.5842e-16  0:00:01  888

 Reversed flow on 55 faces (15.3% area) of pressure-inlet 6.

 Reversed flow on 115 faces (72.2% area) of pressure-outlet 7.
  1113  5.0474e-02  7.6636e-03  3.4514e-03  1.5562e-16  0:00:01  887

 Reversed flow on 54 faces (14.6% area) of pressure-inlet 6.

 Reversed flow on 108 faces (75.1% area) of pressure-outlet 7.
  1114  5.3191e-02  7.7554e-03  3.4768e-03  1.5703e-16  0:02:58  886

 Reversed flow on 53 faces (14.0% area) of pressure-inlet 6.

 Reversed flow on 121 faces (80.1% area) of pressure-outlet 7.
  1115  5.6312e-02  7.8917e-03  3.5091e-03  1.5334e-16  0:02:22  885

 Reversed flow on 53 faces (14.0% area) of pressure-inlet 6.

 Reversed flow on 113 faces (75.9% area) of pressure-outlet 7.
  1116  5.8041e-02  8.0695e-03  3.5422e-03  1.5178e-16  0:01:53  884

 Reversed flow on 54 faces (14.6% area) of pressure-inlet 6.

 Reversed flow on 108 faces (73.6% area) of pressure-outlet 7.
  1117  6.0833e-02  8.2760e-03  3.5964e-03  1.5065e-16  0:01:31  883

 Reversed flow on 53 faces (14.0% area) of pressure-inlet 6.

 Reversed flow on 132 faces (81.4% area) of pressure-outlet 7.
  1118  6.8554e-02  8.5116e-03  3.6902e-03  1.5396e-16  0:01:12  882

 Reversed flow on 53 faces (14.0% area) of pressure-inlet 6.

 Reversed flow on 106 faces (72.3% area) of pressure-outlet 7.
  1119  6.9760e-02  8.8473e-03  3.8195e-03  1.5240e-16  0:00:58  881

 Reversed flow on 55 faces (15.3% area) of pressure-inlet 6.

 Reversed flow on 118 faces (73.3% area) of pressure-outlet 7.
  1120  6.8105e-02  9.0449e-03  3.9221e-03  1.5356e-16  0:00:46  880

 Reversed flow on 58 faces (17.6% area) of pressure-inlet 6.

 Reversed flow on 115 faces (72.8% area) of pressure-outlet 7.

  iter  continuity  x-velocity  y-velocity      energy     time/iter
  1121  6.8684e-02  9.2985e-03  4.0829e-03  1.5020e-16  0:00:37  879

 Reversed flow on 54 faces (14.8% area) of pressure-inlet 6.

 Reversed flow on 112 faces (64.5% area) of pressure-outlet 7.
  1122  7.0249e-02  9.5899e-03  4.2932e-03  1.5298e-16  0:00:30  878

 Reversed flow on 54 faces (14.6% area) of pressure-inlet 6.

 Reversed flow on 109 faces (57.3% area) of pressure-outlet 7.
  1123  7.9642e-02  9.8073e-03  4.4225e-03  1.5238e-16  0:00:24  877

 Reversed flow on 55 faces (15.3% area) of pressure-inlet 6.

 Reversed flow on 92 faces (42.1% area) of pressure-outlet 7.
  1124  7.1976e-02  1.0092e-02  4.5722e-03  1.5379e-16  0:00:19  876

 Reversed flow on 56 faces (16.0% area) of pressure-inlet 6.

 Reversed flow on 78 faces (35.5% area) of pressure-outlet 7.
  1125  7.0583e-02  1.0289e-02  4.7655e-03  1.5352e-16  0:00:15  875

 Reversed flow on 55 faces (15.3% area) of pressure-inlet 6.

 Reversed flow on 86 faces (34.4% area) of pressure-outlet 7.
  1126  7.4629e-02  1.0423e-02  5.0280e-03  1.4950e-16  0:00:12  874

 Reversed flow on 59 faces (18.2% area) of pressure-inlet 6.

 Reversed flow on 72 faces (28.3% area) of pressure-outlet 7.
  1127  7.7769e-02  1.0550e-02  5.1822e-03  1.5544e-16  0:00:10  873

 Reversed flow on 55 faces (15.3% area) of pressure-inlet 6.

 Reversed flow on 86 faces (25.9% area) of pressure-outlet 7.
  1128  8.4647e-02  1.0552e-02  5.2963e-03  1.5520e-16  0:00:08  872

 Reversed flow on 56 faces (16.0% area) of pressure-inlet 6.

 Reversed flow on 75 faces (22.9% area) of pressure-outlet 7.
  1129  8.4492e-02  1.0525e-02  5.4301e-03  1.5242e-16  0:00:06  871

 Reversed flow on 57 faces (16.7% area) of pressure-inlet 6.

 Reversed flow on 90 faces (26.1% area) of pressure-outlet 7.
  1130  8.1690e-02  1.0305e-02  5.5130e-03  1.5630e-16  0:00:05  870

 Reversed flow on 56 faces (16.0% area) of pressure-inlet 6.

 Reversed flow on 71 faces (21.2% area) of pressure-outlet 7.
  1131  8.6577e-02  1.0129e-02  5.6015e-03  1.5560e-16  0:00:04  869

 Reversed flow on 55 faces (15.3% area) of pressure-inlet 6.

 Reversed flow on 95 faces (22.6% area) of pressure-outlet 7.

  iter  continuity  x-velocity  y-velocity      energy     time/iter
  1132  8.5309e-02  9.9873e-03  5.6744e-03  1.5777e-16  0:00:03  868

 Reversed flow on 55 faces (15.3% area) of pressure-inlet 6.

 Reversed flow on 75 faces (19.2% area) of pressure-outlet 7.
  1133  8.1272e-02  9.7660e-03  5.7657e-03  1.5707e-16  0:00:03  867

 Reversed flow on 54 faces (14.6% area) of pressure-inlet 6.

 Reversed flow on 103 faces (23.0% area) of pressure-outlet 7.
  1134  8.4451e-02  9.6519e-03  5.8252e-03  1.5449e-16  0:00:02  866

 Reversed flow on 53 faces (14.0% area) of pressure-inlet 6.

 Reversed flow on 102 faces (20.8% area) of pressure-outlet 7.
  1135  8.9864e-02  9.4893e-03  5.9090e-03  1.5635e-16  0:00:02  865

 Reversed flow on 53 faces (14.0% area) of pressure-inlet 6.

 Reversed flow on 93 faces (20.8% area) of pressure-outlet 7.
  1136  9.2837e-02  9.4122e-03  5.9524e-03  1.5845e-16  0:00:01  864

 Reversed flow on 52 faces (13.3% area) of pressure-inlet 6.

 Reversed flow on 99 faces (19.9% area) of pressure-outlet 7.
  1137  9.0979e-02  9.2767e-03  5.9974e-03  1.5938e-16  0:00:01  863

 Reversed flow on 51 faces (12.7% area) of pressure-inlet 6.

 Reversed flow on 102 faces (20.9% area) of pressure-outlet 7.
  1138  9.1657e-02  9.2131e-03  6.0017e-03  1.6072e-16  0:02:53  862

 Reversed flow on 50 faces (12.2% area) of pressure-inlet 6.

 Reversed flow on 89 faces (18.4% area) of pressure-outlet 7.
  1139  8.1815e-02  9.0863e-03  6.1121e-03  1.6167e-16  0:02:18  861

 Reversed flow on 49 faces (11.6% area) of pressure-inlet 6.

 Reversed flow on 103 faces (21.4% area) of pressure-outlet 7.
  1140  8.5342e-02  8.9271e-03  6.1693e-03  1.6195e-16  0:01:51  860

 Reversed flow on 48 faces (11.1% area) of pressure-inlet 6.

 Reversed flow on 96 faces (19.2% area) of pressure-outlet 7.
  1141  8.2467e-02  8.9472e-03  6.2705e-03  1.6505e-16  0:01:28  859

 Reversed flow on 47 faces (10.6% area) of pressure-inlet 6.

 Reversed flow on 87 faces (21.8% area) of pressure-outlet 7.
  1142  8.3574e-02  8.9399e-03  6.2989e-03  1.6358e-16  0:01:11  858

 Reversed flow on 46 faces (10.1% area) of pressure-inlet 6.

 Reversed flow on 82 faces (18.4% area) of pressure-outlet 7.

  iter  continuity  x-velocity  y-velocity      energy     time/iter
  1143  7.7885e-02  9.0324e-03  6.3472e-03  1.6424e-16  0:00:56  857

 Reversed flow on 45 faces (9.6% area) of pressure-inlet 6.

 Reversed flow on 92 faces (21.9% area) of pressure-outlet 7.
  1144  8.0982e-02  8.9679e-03  6.3796e-03  1.6358e-16  0:00:45  856

 Reversed flow on 45 faces (9.6% area) of pressure-inlet 6.

 Reversed flow on 72 faces (23.2% area) of pressure-outlet 7.
  1145  8.9187e-02  8.9975e-03  6.3595e-03  1.6969e-16  0:00:36  855

 Reversed flow on 44 faces (9.2% area) of pressure-inlet 6.

 Reversed flow on 77 faces (26.7% area) of pressure-outlet 7.
  1146  7.7921e-02  9.0332e-03  6.3679e-03  1.7083e-16  0:00:29  854

 Reversed flow on 44 faces (9.2% area) of pressure-inlet 6.

 Reversed flow on 89 faces (28.7% area) of pressure-outlet 7.
  1147  7.6850e-02  9.0672e-03  6.3437e-03  1.7166e-16  0:00:23  853

 Reversed flow on 44 faces (9.2% area) of pressure-inlet 6.

 Reversed flow on 99 faces (35.1% area) of pressure-outlet 7.
  1148  7.6934e-02  9.0443e-03  6.3361e-03  1.7268e-16  0:00:18  852

 Reversed flow on 44 faces (9.2% area) of pressure-inlet 6.

 Reversed flow on 91 faces (34.1% area) of pressure-outlet 7.
  1149  8.3834e-02  9.0235e-03  6.3137e-03  1.7467e-16  0:00:15  851

 Reversed flow on 44 faces (9.2% area) of pressure-inlet 6.

 Reversed flow on 107 faces (41.2% area) of pressure-outlet 7.
  1150  8.2833e-02  9.0276e-03  6.2803e-03  1.7772e-16  0:00:12  850

 Reversed flow on 45 faces (9.6% area) of pressure-inlet 6.

 Reversed flow on 124 faces (49.5% area) of pressure-outlet 7.
  1151  8.0733e-02  8.9906e-03  6.2059e-03  1.7678e-16  0:00:09  849

 Reversed flow on 46 faces (10.1% area) of pressure-inlet 6.

 Reversed flow on 108 faces (53.9% area) of pressure-outlet 7.
  1152  8.3548e-02  9.0695e-03  6.1418e-03  1.7582e-16  0:00:07  848

 Reversed flow on 46 faces (10.1% area) of pressure-inlet 6.

 Reversed flow on 127 faces (53.7% area) of pressure-outlet 7.
  1153  7.8312e-02  9.1524e-03  6.1018e-03  1.7595e-16  0:00:06  847

 Reversed flow on 47 faces (10.6% area) of pressure-inlet 6.

 Reversed flow on 109 faces (53.7% area) of pressure-outlet 7.

  iter  continuity  x-velocity  y-velocity      energy     time/iter
  1154  8.3051e-02  9.1202e-03  6.0530e-03  1.7304e-16  0:00:05  846

 Reversed flow on 48 faces (11.1% area) of pressure-inlet 6.

 Reversed flow on 124 faces (57.9% area) of pressure-outlet 7.
  1155  7.9589e-02  9.3333e-03  5.9837e-03  1.7306e-16  0:00:04  845

 Reversed flow on 49 faces (11.6% area) of pressure-inlet 6.

 Reversed flow on 115 faces (53.9% area) of pressure-outlet 7.
  1156  7.4075e-02  9.4267e-03  6.0104e-03  1.7314e-16  0:00:03  844

 Reversed flow on 50 faces (12.2% area) of pressure-inlet 6.

 Reversed flow on 122 faces (56.7% area) of pressure-outlet 7.
  1157  8.3392e-02  9.2805e-03  6.0245e-03  1.7049e-16  0:00:02  843

 Reversed flow on 51 faces (12.7% area) of pressure-inlet 6.

 Reversed flow on 115 faces (58.2% area) of pressure-outlet 7.
  1158  8.3214e-02  9.5193e-03  5.9566e-03  1.7286e-16  0:00:02  842

 Reversed flow on 52 faces (13.3% area) of pressure-inlet 6.

 Reversed flow on 106 faces (59.5% area) of pressure-outlet 7.
  1159  7.9016e-02  9.6743e-03  5.8818e-03  1.7152e-16  0:00:02  841

 Reversed flow on 53 faces (14.0% area) of pressure-inlet 6.

 Reversed flow on 116 faces (61.9% area) of pressure-outlet 7.
  1160  7.7849e-02  9.6648e-03  5.9197e-03  1.6693e-16  0:00:01  840

 Reversed flow on 54 faces (14.6% area) of pressure-inlet 6.

 Reversed flow on 127 faces (65.6% area) of pressure-outlet 7.
  1161  7.5023e-02  9.5146e-03  5.9916e-03  1.6412e-16  0:00:01  839

 Reversed flow on 55 faces (15.3% area) of pressure-inlet 6.

 Reversed flow on 124 faces (63.4% area) of pressure-outlet 7.
  1162  8.0912e-02  9.5394e-03  5.9921e-03  1.6170e-16  0:00:01  838

 Reversed flow on 54 faces (14.6% area) of pressure-inlet 6.

 Reversed flow on 116 faces (55.0% area) of pressure-outlet 7.
  1163  7.6186e-02  9.6275e-03  5.9515e-03  1.6107e-16  0:00:01  837

 Reversed flow on 54 faces (14.6% area) of pressure-inlet 6.

 Reversed flow on 117 faces (59.3% area) of pressure-outlet 7.
  1164  7.9364e-02  9.7419e-03  5.8898e-03  1.5953e-16  0:02:48  836

 Reversed flow on 54 faces (14.6% area) of pressure-inlet 6.

 Reversed flow on 110 faces (45.6% area) of pressure-outlet 7.

  iter  continuity  x-velocity  y-velocity      energy     time/iter
  1165  7.1536e-02  9.8586e-03  5.8470e-03  1.5590e-16  0:02:14  835

 Reversed flow on 54 faces (14.6% area) of pressure-inlet 6.

 Reversed flow on 98 faces (36.7% area) of pressure-outlet 7.
  1166  7.5041e-02  9.9408e-03  5.7815e-03  1.5639e-16  0:01:47  834

 Reversed flow on 54 faces (14.6% area) of pressure-inlet 6.

 Reversed flow on 98 faces (32.1% area) of pressure-outlet 7.
  1167  7.5857e-02  1.0028e-02  5.7077e-03  1.5967e-16  0:01:26  833

 Reversed flow on 54 faces (14.6% area) of pressure-inlet 6.

 Reversed flow on 84 faces (31.6% area) of pressure-outlet 7.
  1168  6.8652e-02  1.0099e-02  5.6552e-03  1.5710e-16  0:01:08  832

 Reversed flow on 54 faces (14.6% area) of pressure-inlet 6.

 Reversed flow on 99 faces (28.3% area) of pressure-outlet 7.
  1169  7.1755e-02  9.9983e-03  5.5879e-03  1.5705e-16  0:00:55  831

 Reversed flow on 54 faces (14.6% area) of pressure-inlet 6.

 Reversed flow on 74 faces (22.3% area) of pressure-outlet 7.
  1170  7.4560e-02  9.8675e-03  5.5125e-03  1.5764e-16  0:00:44  830

 Reversed flow on 55 faces (15.3% area) of pressure-inlet 6.

 Reversed flow on 86 faces (22.0% area) of pressure-outlet 7.
  1171  7.8053e-02  9.6055e-03  5.4291e-03  1.5484e-16  0:00:35  829

 Reversed flow on 54 faces (14.6% area) of pressure-inlet 6.

 Reversed flow on 75 faces (20.4% area) of pressure-outlet 7.
  1172  6.8318e-02  9.4638e-03  5.3355e-03  1.5824e-16  0:00:28  828

 Reversed flow on 54 faces (14.6% area) of pressure-inlet 6.

 Reversed flow on 95 faces (23.7% area) of pressure-outlet 7.
  1173  7.6447e-02  9.2147e-03  5.2370e-03  1.6033e-16  0:00:22  827

 Reversed flow on 54 faces (14.6% area) of pressure-inlet 6.

 Reversed flow on 105 faces (22.6% area) of pressure-outlet 7.
  1174  7.9593e-02  9.0477e-03  5.2031e-03  1.5683e-16  0:00:18  826

 Reversed flow on 54 faces (14.6% area) of pressure-inlet 6.

 Reversed flow on 100 faces (24.9% area) of pressure-outlet 7.
  1175  7.4812e-02  8.8679e-03  5.1682e-03  1.5445e-16  0:00:14  825

 Reversed flow on 53 faces (14.0% area) of pressure-inlet 6.

 Reversed flow on 105 faces (25.5% area) of pressure-outlet 7.

  iter  continuity  x-velocity  y-velocity      energy     time/iter
  1176  6.9094e-02  8.7388e-03  5.1148e-03  1.5509e-16  0:00:11  824

 Reversed flow on 52 faces (13.3% area) of pressure-inlet 6.

 Reversed flow on 101 faces (26.2% area) of pressure-outlet 7.
  1177  7.4367e-02  8.5672e-03  5.0230e-03  1.6116e-16  0:00:09  823

 Reversed flow on 51 faces (12.7% area) of pressure-inlet 6.

 Reversed flow on 128 faces (35.4% area) of pressure-outlet 7.
  1178  7.7320e-02  8.4291e-03  5.0039e-03  1.5848e-16  0:00:07  822

 Reversed flow on 49 faces (11.6% area) of pressure-inlet 6.

 Reversed flow on 115 faces (41.2% area) of pressure-outlet 7.
  1179  9.2615e-02  8.3308e-03  4.8942e-03  1.6287e-16  0:00:06  821

 Reversed flow on 48 faces (11.1% area) of pressure-inlet 6.

 Reversed flow on 123 faces (41.1% area) of pressure-outlet 7.
  1180  8.5130e-02  8.2425e-03  4.8405e-03  1.5821e-16  0:00:05  820

 Reversed flow on 47 faces (10.6% area) of pressure-inlet 6.

 Reversed flow on 135 faces (50.9% area) of pressure-outlet 7.
  1181  8.8811e-02  8.1925e-03  4.7225e-03  1.5858e-16  0:00:04  819

 Reversed flow on 46 faces (10.1% area) of pressure-inlet 6.

 Reversed flow on 111 faces (45.0% area) of pressure-outlet 7.
  1182  7.6820e-02  8.1297e-03  4.7034e-03  1.5787e-16  0:00:03  818

 Reversed flow on 44 faces (9.2% area) of pressure-inlet 6.

 Reversed flow on 108 faces (42.0% area) of pressure-outlet 7.
  1183  8.4162e-02  8.0582e-03  4.6229e-03  1.6015e-16  0:00:02  817

 Reversed flow on 43 faces (8.8% area) of pressure-inlet 6.

 Reversed flow on 102 faces (43.4% area) of pressure-outlet 7.
  1184  7.6737e-02  8.0343e-03  4.5681e-03  1.5758e-16  0:00:02  816

 Reversed flow on 42 faces (8.3% area) of pressure-inlet 6.

 Reversed flow on 88 faces (42.7% area) of pressure-outlet 7.
  1185  6.8732e-02  8.0625e-03  4.5432e-03  1.5691e-16  0:00:02  815

 Reversed flow on 41 faces (7.9% area) of pressure-inlet 6.

 Reversed flow on 97 faces (42.5% area) of pressure-outlet 7.
  1186  6.8057e-02  8.0293e-03  4.5153e-03  1.5650e-16  0:00:01  814

 Reversed flow on 41 faces (7.9% area) of pressure-inlet 6.

 Reversed flow on 96 faces (41.5% area) of pressure-outlet 7.

  iter  continuity  x-velocity  y-velocity      energy     time/iter
  1187  7.3193e-02  7.9256e-03  4.5284e-03  1.6093e-16  0:00:01  813

 Reversed flow on 41 faces (8.1% area) of pressure-inlet 6.

 Reversed flow on 93 faces (45.5% area) of pressure-outlet 7.
  1188  6.8334e-02  7.8356e-03  4.5327e-03  1.6263e-16  0:02:43  812

 Reversed flow on 41 faces (8.0% area) of pressure-inlet 6.

 Reversed flow on 94 faces (46.7% area) of pressure-outlet 7.
  1189  6.7930e-02  7.7720e-03  4.5677e-03  1.6565e-16  0:02:10  811

 Reversed flow on 42 faces (8.4% area) of pressure-inlet 6.

 Reversed flow on 96 faces (45.7% area) of pressure-outlet 7.
  1190  6.8765e-02  7.7734e-03  4.6036e-03  1.6714e-16  0:01:44  810

 Reversed flow on 42 faces (8.3% area) of pressure-inlet 6.

 Reversed flow on 105 faces (49.6% area) of pressure-outlet 7.
  1191  7.0315e-02  7.7555e-03  4.6629e-03  1.6919e-16  0:01:23  809

 Reversed flow on 43 faces (8.8% area) of pressure-inlet 6.

 Reversed flow on 94 faces (47.5% area) of pressure-outlet 7.
  1192  7.2918e-02  7.7047e-03  4.7231e-03  1.6790e-16  0:01:07  808

 Reversed flow on 43 faces (8.8% area) of pressure-inlet 6.

 Reversed flow on 97 faces (49.4% area) of pressure-outlet 7.
  1193  7.2910e-02  7.6643e-03  4.8379e-03  1.7087e-16  0:00:53  807

 Reversed flow on 43 faces (8.8% area) of pressure-inlet 6.

 Reversed flow on 99 faces (47.6% area) of pressure-outlet 7.
  1194  7.2371e-02  7.6715e-03  4.9380e-03  1.7206e-16  0:00:42  806

 Reversed flow on 44 faces (9.2% area) of pressure-inlet 6.

 Reversed flow on 104 faces (51.9% area) of pressure-outlet 7.
  1195  7.3335e-02  7.7135e-03  5.0534e-03  1.7173e-16  0:00:34  805

 Reversed flow on 44 faces (9.2% area) of pressure-inlet 6.

 Reversed flow on 112 faces (54.5% area) of pressure-outlet 7.
  1196  7.8769e-02  7.8118e-03  5.1802e-03  1.7329e-16  0:00:27  804

 Reversed flow on 44 faces (9.2% area) of pressure-inlet 6.

 Reversed flow on 103 faces (51.0% area) of pressure-outlet 7.
  1197  7.7956e-02  7.9704e-03  5.3029e-03  1.7960e-16  0:00:22  803

 Reversed flow on 44 faces (9.2% area) of pressure-inlet 6.

 Reversed flow on 102 faces (54.0% area) of pressure-outlet 7.

  iter  continuity  x-velocity  y-velocity      energy     time/iter
  1198  7.9168e-02  8.0816e-03  5.4323e-03  1.7707e-16  0:00:17  802

 Reversed flow on 44 faces (9.2% area) of pressure-inlet 6.

 Reversed flow on 113 faces (57.7% area) of pressure-outlet 7.
  1199  8.1800e-02  8.1452e-03  5.5621e-03  1.7378e-16  0:00:14  801

 Reversed flow on 44 faces (9.2% area) of pressure-inlet 6.

 Reversed flow on 105 faces (53.6% area) of pressure-outlet 7.
  1200  7.9965e-02  8.3262e-03  5.7038e-03  1.7242e-16  0:00:11  800

 Reversed flow on 44 faces (9.2% area) of pressure-inlet 6.

 Reversed flow on 113 faces (61.8% area) of pressure-outlet 7.
  1201  8.3653e-02  8.4756e-03  5.8398e-03  1.6880e-16  0:00:09  799

 Reversed flow on 44 faces (9.2% area) of pressure-inlet 6.

 Reversed flow on 102 faces (58.0% area) of pressure-outlet 7.
  1202  8.8459e-02  8.6382e-03  5.9689e-03  1.6316e-16  0:00:07  798

 Reversed flow on 44 faces (9.2% area) of pressure-inlet 6.

 Reversed flow on 111 faces (61.0% area) of pressure-outlet 7.
  1203  8.7844e-02  8.8378e-03  6.1369e-03  1.6027e-16  0:00:06  797

 Reversed flow on 44 faces (9.2% area) of pressure-inlet 6.

 Reversed flow on 106 faces (54.2% area) of pressure-outlet 7.
  1204  9.4653e-02  9.0356e-03  6.2295e-03  1.6144e-16  0:00:05  796

 Reversed flow on 45 faces (9.6% area) of pressure-inlet 6.

 Reversed flow on 103 faces (46.4% area) of pressure-outlet 7.
  1205  9.4668e-02  9.3288e-03  6.3762e-03  1.6606e-16  0:00:04  795

 Reversed flow on 45 faces (9.6% area) of pressure-inlet 6.

 Reversed flow on 97 faces (38.4% area) of pressure-outlet 7.
  1206  9.3339e-02  9.5875e-03  6.4470e-03  1.6665e-16  0:00:03  794

 Reversed flow on 44 faces (9.2% area) of pressure-inlet 6.

 Reversed flow on 101 faces (33.7% area) of pressure-outlet 7.
  1207  9.0679e-02  9.8153e-03  6.5055e-03  1.6883e-16  0:00:02  793

 Reversed flow on 46 faces (10.1% area) of pressure-inlet 6.

 Reversed flow on 75 faces (19.0% area) of pressure-outlet 7.
  1208  8.5782e-02  1.0045e-02  6.5832e-03  1.6884e-16  0:00:02  792

 Reversed flow on 46 faces (10.1% area) of pressure-inlet 6.

 Reversed flow on 92 faces (29.6% area) of pressure-outlet 7.

  iter  continuity  x-velocity  y-velocity      energy     time/iter
  1209  8.6591e-02  1.0214e-02  6.6354e-03  1.7308e-16  0:00:01  791

 Reversed flow on 47 faces (10.6% area) of pressure-inlet 6.

 Reversed flow on 62 faces (13.7% area) of pressure-outlet 7.
  1210  1.1807e-01  1.0350e-02  6.6546e-03  1.7595e-16  0:00:01  790

 Reversed flow on 46 faces (10.1% area) of pressure-inlet 6.

 Reversed flow on 87 faces (23.1% area) of pressure-outlet 7.
  1211  9.6161e-02  1.0718e-02  6.6464e-03  1.7302e-16  0:00:01  789

 Reversed flow on 46 faces (10.1% area) of pressure-inlet 6.

 Reversed flow on 81 faces (23.4% area) of pressure-outlet 7.
  1212  9.2841e-02  1.0716e-02  6.5717e-03  1.7095e-16  0:00:01  788

 Reversed flow on 48 faces (11.1% area) of pressure-inlet 6.

 Reversed flow on 85 faces (25.4% area) of pressure-outlet 7.
  1213  8.7497e-02  1.0683e-02  6.4900e-03  1.7572e-16  0:00:01  787

 Reversed flow on 48 faces (11.1% area) of pressure-inlet 6.

 Reversed flow on 92 faces (24.7% area) of pressure-outlet 7.
  1214  7.3851e-02  1.0651e-02  6.4483e-03  1.7361e-16  0:02:38  786

 Reversed flow on 48 faces (11.1% area) of pressure-inlet 6.

 Reversed flow on 89 faces (31.7% area) of pressure-outlet 7.
  1215  9.4652e-02  1.0669e-02  6.3962e-03  1.6912e-16  0:02:06  785

 Reversed flow on 47 faces (10.6% area) of pressure-inlet 6.

 Reversed flow on 102 faces (38.5% area) of pressure-outlet 7.
  1216  7.9989e-02  1.0726e-02  6.3420e-03  1.7126e-16  0:01:41  784

 Reversed flow on 47 faces (10.6% area) of pressure-inlet 6.

 Reversed flow on 103 faces (43.0% area) of pressure-outlet 7.
  1217  7.1677e-02  1.0878e-02  6.2715e-03  1.6926e-16  0:01:20  783

 Reversed flow on 47 faces (10.6% area) of pressure-inlet 6.

 Reversed flow on 94 faces (42.5% area) of pressure-outlet 7.
  1218  8.3453e-02  1.1085e-02  6.1755e-03  1.6777e-16  0:01:04  782

 Reversed flow on 47 faces (10.6% area) of pressure-inlet 6.

 Reversed flow on 88 faces (46.9% area) of pressure-outlet 7.
  1219  8.1520e-02  1.1331e-02  6.0703e-03  1.7160e-16  0:00:51  781

 Reversed flow on 46 faces (10.5% area) of pressure-inlet 6.

 Reversed flow on 96 faces (46.4% area) of pressure-outlet 7.

  iter  continuity  x-velocity  y-velocity      energy     time/iter
  1220  7.6034e-02  1.1426e-02  6.0442e-03  1.7169e-16  0:00:41  780

 Reversed flow on 46 faces (10.5% area) of pressure-inlet 6.

 Reversed flow on 108 faces (49.6% area) of pressure-outlet 7.
  1221  8.9818e-02  1.1428e-02  6.1357e-03  1.7202e-16  0:00:33  779

 Reversed flow on 46 faces (10.5% area) of pressure-inlet 6.

 Reversed flow on 101 faces (48.3% area) of pressure-outlet 7.
  1222  7.3721e-02  1.1314e-02  6.1513e-03  1.7033e-16  0:00:26  778

 Reversed flow on 46 faces (10.1% area) of pressure-inlet 6.

 Reversed flow on 107 faces (51.4% area) of pressure-outlet 7.
  1223  7.6881e-02  1.1170e-02  6.1451e-03  1.6932e-16  0:00:21  777

 Reversed flow on 45 faces (9.6% area) of pressure-inlet 6.

 Reversed flow on 91 faces (51.5% area) of pressure-outlet 7.
  1224  7.4864e-02  1.1086e-02  6.1376e-03  1.6638e-16  0:00:17  776

 Reversed flow on 43 faces (8.8% area) of pressure-inlet 6.

 Reversed flow on 119 faces (61.2% area) of pressure-outlet 7.
  1225  7.2632e-02  1.1016e-02  6.0898e-03  1.6659e-16  0:00:13  775

 Reversed flow on 41 faces (7.9% area) of pressure-inlet 6.

 Reversed flow on 127 faces (65.0% area) of pressure-outlet 7.
  1226  7.4290e-02  1.0986e-02  6.0515e-03  1.6656e-16  0:00:11  774

 Reversed flow on 39 faces (7.2% area) of pressure-inlet 6.

 Reversed flow on 129 faces (67.9% area) of pressure-outlet 7.
  1227  7.8549e-02  1.0936e-02  5.9492e-03  1.6223e-16  0:00:09  773

 Reversed flow on 42 faces (11.6% area) of pressure-inlet 6.

 Reversed flow on 105 faces (59.6% area) of pressure-outlet 7.
  1228  9.3000e-02  1.0914e-02  5.8253e-03  1.6071e-16  0:00:07  772

 Reversed flow on 39 faces (11.8% area) of pressure-inlet 6.

 Reversed flow on 113 faces (60.0% area) of pressure-outlet 7.
  1229  8.5828e-02  1.0967e-02  5.7745e-03  1.5418e-16  0:00:05  771

 Reversed flow on 36 faces (13.0% area) of pressure-inlet 6.

 Reversed flow on 110 faces (57.8% area) of pressure-outlet 7.
  1230  8.0716e-02  1.0922e-02  5.6170e-03  1.5361e-16  0:00:04  770

 Reversed flow on 30 faces (14.2% area) of pressure-inlet 6.

 Reversed flow on 104 faces (45.0% area) of pressure-outlet 7.

  iter  continuity  x-velocity  y-velocity      energy     time/iter
  1231  7.7282e-02  1.0930e-02  5.4443e-03  1.5355e-16  0:00:03  769

 Reversed flow on 13 faces (14.1% area) of pressure-inlet 6.

 Reversed flow on 113 faces (46.2% area) of pressure-outlet 7.
  1232  7.6570e-02  1.0944e-02  5.2325e-03  1.5318e-16  0:00:03  768

 Reversed flow on 15 faces (17.0% area) of pressure-inlet 6.

 Reversed flow on 88 faces (36.0% area) of pressure-outlet 7.
  1233  6.2651e-02  1.0915e-02  5.0454e-03  1.4865e-16  0:00:02  767

 Reversed flow on 17 faces (20.1% area) of pressure-inlet 6.

 Reversed flow on 70 faces (25.3% area) of pressure-outlet 7.
  1234  6.3086e-02  1.0726e-02  4.8703e-03  1.5255e-16  0:00:02  766

 Reversed flow on 19 faces (22.5% area) of pressure-inlet 6.

 Reversed flow on 82 faces (20.1% area) of pressure-outlet 7.
  1235  7.7380e-02  1.0484e-02  4.7242e-03  1.5342e-16  0:00:01  765

 Reversed flow on 21 faces (26.1% area) of pressure-inlet 6.

 Reversed flow on 80 faces (19.0% area) of pressure-outlet 7.
  1236  5.5706e-02  1.0207e-02  4.5764e-03  1.5442e-16  0:00:01  764

 Reversed flow on 21 faces (27.1% area) of pressure-inlet 6.

 Reversed flow on 75 faces (16.7% area) of pressure-outlet 7.
  1237  5.3591e-02  9.8693e-03  4.4426e-03  1.5382e-16  0:00:01  763

 Reversed flow on 23 faces (29.9% area) of pressure-inlet 6.

 Reversed flow on 68 faces (14.1% area) of pressure-outlet 7.
  1238  6.5919e-02  9.4876e-03  4.3431e-03  1.5422e-16  0:02:33  762

 Reversed flow on 24 faces (31.9% area) of pressure-inlet 6.

 Reversed flow on 76 faces (15.5% area) of pressure-outlet 7.
  1239  5.0413e-02  9.1365e-03  4.2922e-03  1.5290e-16  0:02:02  761

 Reversed flow on 26 faces (36.2% area) of pressure-inlet 6.

 Reversed flow on 51 faces (11.9% area) of pressure-outlet 7.
  1240  5.3554e-02  8.7583e-03  4.2182e-03  1.5028e-16  0:01:38  760

 Reversed flow on 26 faces (36.2% area) of pressure-inlet 6.

 Reversed flow on 76 faces (24.9% area) of pressure-outlet 7.
  1241  5.5382e-02  8.4189e-03  4.1944e-03  1.5204e-16  0:01:18  759

 Reversed flow on 27 faces (38.5% area) of pressure-inlet 6.

 Reversed flow on 92 faces (27.4% area) of pressure-outlet 7.

  iter  continuity  x-velocity  y-velocity      energy     time/iter
  1242  5.4392e-02  8.0740e-03  4.1754e-03  1.5051e-16  0:01:02  758

 Reversed flow on 27 faces (40.0% area) of pressure-inlet 6.

 Reversed flow on 79 faces (33.6% area) of pressure-outlet 7.
  1243  5.6158e-02  7.7509e-03  4.1481e-03  1.5313e-16  0:00:50  757

 Reversed flow on 28 faces (42.5% area) of pressure-inlet 6.

 Reversed flow on 75 faces (32.0% area) of pressure-outlet 7.
  1244  5.9281e-02  7.4268e-03  4.1153e-03  1.5338e-16  0:00:40  756

 Reversed flow on 29 faces (45.0% area) of pressure-inlet 6.

 Reversed flow on 71 faces (30.5% area) of pressure-outlet 7.
  1245  6.7283e-02  7.1180e-03  4.0734e-03  1.5020e-16  0:00:32  755

 Reversed flow on 29 faces (46.8% area) of pressure-inlet 6.

 Reversed flow on 82 faces (33.9% area) of pressure-outlet 7.
  1246  5.9981e-02  6.8355e-03  4.0193e-03  1.5150e-16  0:00:25  754

 Reversed flow on 30 faces (49.6% area) of pressure-inlet 6.

 Reversed flow on 64 faces (35.0% area) of pressure-outlet 7.
  1247  5.8748e-02  6.5649e-03  3.9652e-03  1.5190e-16  0:00:20  753

 Reversed flow on 30 faces (51.6% area) of pressure-inlet 6.

 Reversed flow on 61 faces (32.0% area) of pressure-outlet 7.
  1248  6.1626e-02  6.3277e-03  3.9016e-03  1.5223e-16  0:00:16  752

 Reversed flow on 31 faces (54.6% area) of pressure-inlet 6.

 Reversed flow on 51 faces (30.3% area) of pressure-outlet 7.
  1249  7.7375e-02  6.1502e-03  3.8242e-03  1.5459e-16  0:00:13  751

 Reversed flow on 31 faces (54.6% area) of pressure-inlet 6.

 Reversed flow on 45 faces (33.4% area) of pressure-outlet 7.
  1250  5.7554e-02  6.0435e-03  3.7560e-03  1.5443e-16  0:00:10  750

 Reversed flow on 32 faces (57.7% area) of pressure-inlet 6.

 Reversed flow on 46 faces (36.7% area) of pressure-outlet 7.
  1251  5.8978e-02  5.9689e-03  3.7015e-03  1.5579e-16  0:00:08  749

 Reversed flow on 32 faces (60.1% area) of pressure-inlet 6.

 Reversed flow on 47 faces (37.5% area) of pressure-outlet 7.
  1252  6.1745e-02  5.9263e-03  3.6438e-03  1.5063e-16  0:00:07  748

 Reversed flow on 32 faces (60.1% area) of pressure-inlet 6.

 Reversed flow on 43 faces (37.6% area) of pressure-outlet 7.

  iter  continuity  x-velocity  y-velocity      energy     time/iter
  1253  6.4835e-02  5.9313e-03  3.5891e-03  1.5251e-16  0:00:05  747

 Reversed flow on 33 faces (63.4% area) of pressure-inlet 6.

 Reversed flow on 38 faces (39.4% area) of pressure-outlet 7.
  1254  6.0604e-02  5.9463e-03  3.5587e-03  1.5725e-16  0:00:04  746

 Reversed flow on 36 faces (68.7% area) of pressure-inlet 6.

 Reversed flow on 39 faces (41.4% area) of pressure-outlet 7.
  1255  5.5359e-02  5.9693e-03  3.5184e-03  1.5235e-16  0:00:03  745

 Reversed flow on 36 faces (68.7% area) of pressure-inlet 6.

 Reversed flow on 39 faces (42.5% area) of pressure-outlet 7.
  1256  5.5101e-02  5.9903e-03  3.4868e-03  1.5125e-16  0:00:03  744

 Reversed flow on 38 faces (73.2% area) of pressure-inlet 6.

 Reversed flow on 46 faces (44.4% area) of pressure-outlet 7.
  1257  5.2799e-02  5.9905e-03  3.4636e-03  1.5205e-16  0:00:02  743

 Reversed flow on 39 faces (74.0% area) of pressure-inlet 6.

 Reversed flow on 53 faces (47.7% area) of pressure-outlet 7.
  1258  5.6907e-02  6.0015e-03  3.4507e-03  1.5373e-16  0:00:02  742

 Reversed flow on 42 faces (76.3% area) of pressure-inlet 6.

 Reversed flow on 53 faces (48.6% area) of pressure-outlet 7.
  1259  5.3318e-02  6.0126e-03  3.4386e-03  1.5166e-16  0:00:01  741

 Reversed flow on 43 faces (76.2% area) of pressure-inlet 6.

 Reversed flow on 55 faces (50.7% area) of pressure-outlet 7.
  1260  5.8357e-02  5.9810e-03  3.4230e-03  1.5160e-16  0:00:01  740

 Reversed flow on 37 faces (60.8% area) of pressure-inlet 6.

 Reversed flow on 53 faces (50.5% area) of pressure-outlet 7.
  1261  5.9859e-02  5.9825e-03  3.3878e-03  1.5589e-16  0:00:01  739

 Reversed flow on 27 faces (36.4% area) of pressure-inlet 6.

 Reversed flow on 57 faces (54.5% area) of pressure-outlet 7.
  1262  7.4876e-02  5.9743e-03  3.3786e-03  1.5658e-16  0:00:01  738

 Reversed flow on 28 faces (31.2% area) of pressure-inlet 6.

 Reversed flow on 60 faces (57.7% area) of pressure-outlet 7.
  1263  6.7318e-02  5.9701e-03  3.3729e-03  1.5693e-16  0:00:01  737

 Reversed flow on 30 faces (22.2% area) of pressure-inlet 6.

 Reversed flow on 59 faces (58.6% area) of pressure-outlet 7.

  iter  continuity  x-velocity  y-velocity      energy     time/iter
  1264  6.8106e-02  5.9918e-03  3.3637e-03  1.5973e-16  0:02:28  736

 Reversed flow on 32 faces (22.7% area) of pressure-inlet 6.

 Reversed flow on 57 faces (58.7% area) of pressure-outlet 7.
  1265  6.4577e-02  6.0423e-03  3.3316e-03  1.6095e-16  0:01:58  735

 Reversed flow on 69 faces (28.8% area) of pressure-inlet 6.

 Reversed flow on 59 faces (60.5% area) of pressure-outlet 7.
  1266  6.7494e-02  6.0977e-03  3.3307e-03  1.6350e-16  0:01:34  734

 Reversed flow on 72 faces (31.9% area) of pressure-inlet 6.

 Reversed flow on 73 faces (64.7% area) of pressure-outlet 7.
  1267  6.7543e-02  6.1468e-03  3.3471e-03  1.6755e-16  0:01:15  733

 Reversed flow on 73 faces (33.3% area) of pressure-inlet 6.

 Reversed flow on 74 faces (63.6% area) of pressure-outlet 7.
  1268  5.9873e-02  6.2006e-03  3.3643e-03  1.6355e-16  0:01:00  732

 Reversed flow on 71 faces (30.5% area) of pressure-inlet 6.

 Reversed flow on 82 faces (66.0% area) of pressure-outlet 7.
  1269  6.0494e-02  6.2620e-03  3.3842e-03  1.6315e-16  0:00:48  731

 Reversed flow on 71 faces (30.5% area) of pressure-inlet 6.

 Reversed flow on 91 faces (66.0% area) of pressure-outlet 7.
  1270  6.7922e-02  6.3134e-03  3.4048e-03  1.6145e-16  0:00:38  730

 Reversed flow on 69 faces (28.0% area) of pressure-inlet 6.

 Reversed flow on 100 faces (68.5% area) of pressure-outlet 7.
  1271  6.4544e-02  6.3806e-03  3.4282e-03  1.6408e-16  0:00:31  729

 Reversed flow on 68 faces (26.8% area) of pressure-inlet 6.

 Reversed flow on 103 faces (68.9% area) of pressure-outlet 7.
  1272  6.5205e-02  6.4500e-03  3.4337e-03  1.6645e-16  0:00:25  728

 Reversed flow on 67 faces (25.7% area) of pressure-inlet 6.

 Reversed flow on 103 faces (67.4% area) of pressure-outlet 7.
  1273  6.4335e-02  6.5139e-03  3.4530e-03  1.6524e-16  0:00:20  727

 Reversed flow on 67 faces (25.7% area) of pressure-inlet 6.

 Reversed flow on 106 faces (67.3% area) of pressure-outlet 7.
  1274  6.6738e-02  6.5907e-03  3.4731e-03  1.6075e-16  0:00:16  726

 Reversed flow on 66 faces (24.6% area) of pressure-inlet 6.

 Reversed flow on 105 faces (65.1% area) of pressure-outlet 7.

  iter  continuity  x-velocity  y-velocity      energy     time/iter
  1275  6.9050e-02  6.6434e-03  3.4952e-03  1.5738e-16  0:00:12  725

 Reversed flow on 66 faces (24.6% area) of pressure-inlet 6.

 Reversed flow on 104 faces (63.9% area) of pressure-outlet 7.
  1276  7.1765e-02  6.6823e-03  3.5731e-03  1.5334e-16  0:00:10  724

 Reversed flow on 65 faces (23.6% area) of pressure-inlet 6.

 Reversed flow on 104 faces (64.2% area) of pressure-outlet 7.
  1277  7.4910e-02  6.7118e-03  3.6616e-03  1.5490e-16  0:00:08  723

 Reversed flow on 65 faces (23.6% area) of pressure-inlet 6.

 Reversed flow on 107 faces (63.1% area) of pressure-outlet 7.
  1278  7.7289e-02  6.7724e-03  3.7620e-03  1.5106e-16  0:00:06  722

 Reversed flow on 64 faces (22.6% area) of pressure-inlet 6.

 Reversed flow on 106 faces (60.4% area) of pressure-outlet 7.
  1279  7.9386e-02  6.8490e-03  3.8835e-03  1.5409e-16  0:00:05  721

 Reversed flow on 63 faces (21.7% area) of pressure-inlet 6.

 Reversed flow on 100 faces (50.5% area) of pressure-outlet 7.
  1280  8.3135e-02  6.9522e-03  3.9974e-03  1.5127e-16  0:00:04  720

 Reversed flow on 63 faces (21.7% area) of pressure-inlet 6.

 Reversed flow on 94 faces (43.9% area) of pressure-outlet 7.
  1281  8.4866e-02  7.0911e-03  4.0841e-03  1.5002e-16  0:00:03  719

 Reversed flow on 62 faces (20.8% area) of pressure-inlet 6.

 Reversed flow on 99 faces (45.2% area) of pressure-outlet 7.
  1282  8.5540e-02  7.2375e-03  4.1773e-03  1.5147e-16  0:00:03  718

 Reversed flow on 62 faces (20.8% area) of pressure-inlet 6.

 Reversed flow on 96 faces (42.4% area) of pressure-outlet 7.
  1283  9.0799e-02  7.4164e-03  4.2649e-03  1.5097e-16  0:00:02  717

 Reversed flow on 61 faces (19.9% area) of pressure-inlet 6.

 Reversed flow on 96 faces (41.2% area) of pressure-outlet 7.
  1284  9.4254e-02  7.6210e-03  4.3563e-03  1.5007e-16  0:00:02  716

 Reversed flow on 61 faces (19.9% area) of pressure-inlet 6.

 Reversed flow on 98 faces (41.8% area) of pressure-outlet 7.
  1285  9.5165e-02  7.8325e-03  4.4308e-03  1.5191e-16  0:00:01  715

 Reversed flow on 60 faces (19.0% area) of pressure-inlet 6.

 Reversed flow on 96 faces (40.0% area) of pressure-outlet 7.

  iter  continuity  x-velocity  y-velocity      energy     time/iter
  1286  9.5440e-02  8.0216e-03  4.5067e-03  1.4788e-16  0:00:01  714

 Reversed flow on 60 faces (19.0% area) of pressure-inlet 6.

 Reversed flow on 98 faces (40.3% area) of pressure-outlet 7.
  1287  9.8716e-02  8.1859e-03  4.5790e-03  1.4700e-16  0:02:23  713

 Reversed flow on 60 faces (19.0% area) of pressure-inlet 6.

 Reversed flow on 98 faces (40.5% area) of pressure-outlet 7.
  1288  1.0160e-01  8.3450e-03  4.6678e-03  1.5001e-16  0:01:55  712

 Reversed flow on 59 faces (18.2% area) of pressure-inlet 6.

 Reversed flow on 98 faces (41.0% area) of pressure-outlet 7.
  1289  1.0451e-01  8.5086e-03  4.7817e-03  1.4926e-16  0:01:32  711

 Reversed flow on 59 faces (18.2% area) of pressure-inlet 6.

 Reversed flow on 101 faces (42.8% area) of pressure-outlet 7.
  1290  1.1002e-01  8.7100e-03  4.9177e-03  1.4871e-16  0:01:13  710

 Reversed flow on 59 faces (18.2% area) of pressure-inlet 6.

 Reversed flow on 128 faces (48.1% area) of pressure-outlet 7.
  1291  1.1370e-01  8.9461e-03  5.0983e-03  1.5374e-16  0:00:58  709

 Reversed flow on 59 faces (18.2% area) of pressure-inlet 6.

 Reversed flow on 146 faces (60.9% area) of pressure-outlet 7.
  1292  1.2306e-01  9.1895e-03  5.3003e-03  1.5415e-16  0:00:47  708

 Reversed flow on 58 faces (17.4% area) of pressure-inlet 6.

 Reversed flow on 140 faces (58.7% area) of pressure-outlet 7.
  1293  1.2741e-01  9.4951e-03  5.4518e-03  1.5437e-16  0:00:37  707

 Reversed flow on 58 faces (17.4% area) of pressure-inlet 6.

 Reversed flow on 129 faces (66.0% area) of pressure-outlet 7.
  1294  1.1134e-01  9.8871e-03  5.6257e-03  1.5021e-16  0:00:30  706

 Reversed flow on 58 faces (17.4% area) of pressure-inlet 6.

 Reversed flow on 132 faces (62.1% area) of pressure-outlet 7.
  1295  1.0756e-01  1.0119e-02  5.8500e-03  1.4890e-16  0:00:24  705

 Reversed flow on 58 faces (17.4% area) of pressure-inlet 6.

 Reversed flow on 121 faces (56.4% area) of pressure-outlet 7.
  1296  1.0863e-01  1.0332e-02  6.0816e-03  1.5325e-16  0:00:19  704

 Reversed flow on 59 faces (18.2% area) of pressure-inlet 6.

 Reversed flow on 117 faces (58.3% area) of pressure-outlet 7.

  iter  continuity  x-velocity  y-velocity      energy     time/iter
  1297  1.1578e-01  1.0567e-02  6.2297e-03  1.5271e-16  0:00:15  703

 Reversed flow on 59 faces (18.2% area) of pressure-inlet 6.

 Reversed flow on 124 faces (61.1% area) of pressure-outlet 7.
  1298  1.0741e-01  1.0910e-02  6.3829e-03  1.5427e-16  0:00:12  702

 Reversed flow on 59 faces (18.2% area) of pressure-inlet 6.

 Reversed flow on 133 faces (66.7% area) of pressure-outlet 7.
  1299  1.0707e-01  1.1063e-02  6.5317e-03  1.5320e-16  0:00:10  701

 Reversed flow on 59 faces (18.2% area) of pressure-inlet 6.

 Reversed flow on 122 faces (66.3% area) of pressure-outlet 7.
  1300  1.0981e-01  1.1107e-02  6.7485e-03  1.5383e-16  0:00:08  700

 Reversed flow on 59 faces (18.2% area) of pressure-inlet 6.

 Reversed flow on 122 faces (69.5% area) of pressure-outlet 7.
  1301  1.3526e-01  1.1283e-02  6.8731e-03  1.5541e-16  0:00:06  699

 Reversed flow on 59 faces (18.2% area) of pressure-inlet 6.

 Reversed flow on 115 faces (66.9% area) of pressure-outlet 7.
  1302  1.2261e-01  1.1527e-02  6.9525e-03  1.5523e-16  0:00:05  698

 Reversed flow on 58 faces (17.4% area) of pressure-inlet 6.

 Reversed flow on 117 faces (68.6% area) of pressure-outlet 7.
  1303  1.1843e-01  1.1538e-02  7.1561e-03  1.5253e-16  0:00:04  697

 Reversed flow on 58 faces (17.4% area) of pressure-inlet 6.

 Reversed flow on 137 faces (72.0% area) of pressure-outlet 7.
  1304  1.4320e-01  1.1513e-02  7.2787e-03  1.5336e-16  0:00:03  696

 Reversed flow on 58 faces (17.4% area) of pressure-inlet 6.

 Reversed flow on 133 faces (71.4% area) of pressure-outlet 7.
  1305  1.2692e-01  1.1852e-02  7.3016e-03  1.5266e-16  0:00:03  695

 Reversed flow on 58 faces (17.4% area) of pressure-inlet 6.

 Reversed flow on 133 faces (73.4% area) of pressure-outlet 7.
  1306  1.3756e-01  1.1875e-02  7.4205e-03  1.5207e-16  0:00:02  694

 Reversed flow on 58 faces (17.4% area) of pressure-inlet 6.

 Reversed flow on 119 faces (65.6% area) of pressure-outlet 7.
  1307  1.7675e-01  1.1956e-02  7.5430e-03  1.5065e-16  0:00:02  693

 Reversed flow on 58 faces (17.4% area) of pressure-inlet 6.

 Reversed flow on 119 faces (66.3% area) of pressure-outlet 7.

  iter  continuity  x-velocity  y-velocity      energy     time/iter
  1308  1.4843e-01  1.2249e-02  7.5171e-03  1.5045e-16  0:00:01  692

 Reversed flow on 58 faces (17.4% area) of pressure-inlet 6.

 Reversed flow on 125 faces (67.4% area) of pressure-outlet 7.
  1309  1.4100e-01  1.2301e-02  7.6325e-03  1.4859e-16  0:00:01  691

 Reversed flow on 58 faces (17.4% area) of pressure-inlet 6.

 Reversed flow on 122 faces (66.4% area) of pressure-outlet 7.
  1310  1.3523e-01  1.2327e-02  7.5230e-03  1.5111e-16  0:00:01  690

 Reversed flow on 60 faces (19.0% area) of pressure-inlet 6.

 Reversed flow on 118 faces (58.0% area) of pressure-outlet 7.
  1311  1.4115e-01  1.2200e-02  7.6470e-03  1.4955e-16  0:00:01  689

 Reversed flow on 59 faces (18.2% area) of pressure-inlet 6.

 Reversed flow on 130 faces (64.9% area) of pressure-outlet 7.
  1312  1.6303e-01  1.2170e-02  7.5330e-03  1.4996e-16  0:00:01  688

 Reversed flow on 61 faces (19.9% area) of pressure-inlet 6.

 Reversed flow on 123 faces (56.2% area) of pressure-outlet 7.
  1313  1.5658e-01  1.2067e-02  7.6778e-03  1.4834e-16  0:02:18  687

 Reversed flow on 61 faces (19.9% area) of pressure-inlet 6.

 Reversed flow on 130 faces (61.5% area) of pressure-outlet 7.
  1314  1.5594e-01  1.1718e-02  7.6034e-03  1.5230e-16  0:01:50  686

 Reversed flow on 63 faces (21.7% area) of pressure-inlet 6.

 Reversed flow on 113 faces (48.0% area) of pressure-outlet 7.
  1315  1.4783e-01  1.1634e-02  7.6469e-03  1.4824e-16  0:01:28  685

 Reversed flow on 64 faces (22.7% area) of pressure-inlet 6.

 Reversed flow on 93 faces (43.0% area) of pressure-outlet 7.
  1316  1.5898e-01  1.1215e-02  7.5696e-03  1.5204e-16  0:01:10  684

 Reversed flow on 66 faces (24.6% area) of pressure-inlet 6.

 Reversed flow on 111 faces (44.4% area) of pressure-outlet 7.
  1317  1.3847e-01  1.1138e-02  7.6841e-03  1.5180e-16  0:00:56  683

 Reversed flow on 65 faces (23.8% area) of pressure-inlet 6.

 Reversed flow on 91 faces (42.6% area) of pressure-outlet 7.
  1318  1.5592e-01  1.0765e-02  7.6190e-03  1.5077e-16  0:00:45  682

 Reversed flow on 66 faces (24.7% area) of pressure-inlet 6.

 Reversed flow on 109 faces (50.4% area) of pressure-outlet 7.

  iter  continuity  x-velocity  y-velocity      energy     time/iter
  1319  1.3540e-01  1.0484e-02  7.6331e-03  1.5091e-16  0:00:36  681

 Reversed flow on 67 faces (25.9% area) of pressure-inlet 6.

 Reversed flow on 116 faces (55.7% area) of pressure-outlet 7.
  1320  1.4327e-01  1.0224e-02  7.6071e-03  1.5308e-16  0:00:29  680

 Reversed flow on 67 faces (25.9% area) of pressure-inlet 6.

 Reversed flow on 123 faces (60.4% area) of pressure-outlet 7.
  1321  1.5040e-01  9.9591e-03  7.5027e-03  1.4807e-16  0:00:23  679

 Reversed flow on 67 faces (25.8% area) of pressure-inlet 6.

 Reversed flow on 122 faces (66.9% area) of pressure-outlet 7.
  1322  1.3926e-01  1.0000e-02  7.4282e-03  1.5316e-16  0:00:18  678

 Reversed flow on 66 faces (24.6% area) of pressure-inlet 6.

 Reversed flow on 128 faces (71.5% area) of pressure-outlet 7.
  1323  1.5210e-01  9.8797e-03  7.2517e-03  1.5210e-16  0:00:15  677

 Reversed flow on 68 faces (26.8% area) of pressure-inlet 6.

 Reversed flow on 128 faces (70.5% area) of pressure-outlet 7.
  1324  1.3753e-01  1.0009e-02  7.0700e-03  1.5111e-16  0:00:12  676

 Reversed flow on 67 faces (25.7% area) of pressure-inlet 6.

 Reversed flow on 116 faces (70.1% area) of pressure-outlet 7.
  1325  1.6761e-01  9.9552e-03  6.8528e-03  1.5535e-16  0:00:09  675

 Reversed flow on 68 faces (26.8% area) of pressure-inlet 6.

 Reversed flow on 118 faces (71.3% area) of pressure-outlet 7.
  1326  1.2215e-01  1.0421e-02  6.9999e-03  1.5205e-16  0:00:07  674

 Reversed flow on 69 faces (28.0% area) of pressure-inlet 6.

 Reversed flow on 121 faces (71.9% area) of pressure-outlet 7.
  1327  1.1929e-01  1.0167e-02  6.6402e-03  1.5315e-16  0:00:06  673

 Reversed flow on 68 faces (26.8% area) of pressure-inlet 6.

 Reversed flow on 122 faces (72.4% area) of pressure-outlet 7.
  1328  1.1225e-01  1.0064e-02  6.4662e-03  1.5717e-16  0:00:05  672

 Reversed flow on 69 faces (28.0% area) of pressure-inlet 6.

 Reversed flow on 126 faces (73.2% area) of pressure-outlet 7.
  1329  1.1050e-01  1.0025e-02  6.3353e-03  1.6076e-16  0:00:04  671

 Reversed flow on 70 faces (29.2% area) of pressure-inlet 6.

 Reversed flow on 123 faces (73.4% area) of pressure-outlet 7.

  iter  continuity  x-velocity  y-velocity      energy     time/iter
  1330  1.1334e-01  9.9781e-03  6.2715e-03  1.6123e-16  0:00:03  670

 Reversed flow on 69 faces (28.1% area) of pressure-inlet 6.

 Reversed flow on 111 faces (72.4% area) of pressure-outlet 7.
  1331  1.0541e-01  9.9692e-03  6.1821e-03  1.6601e-16  0:00:02  669

 Reversed flow on 69 faces (28.0% area) of pressure-inlet 6.

 Reversed flow on 120 faces (79.1% area) of pressure-outlet 7.
  1332  1.0666e-01  9.8775e-03  6.1958e-03  1.6602e-16  0:00:02  668

 Reversed flow on 69 faces (28.0% area) of pressure-inlet 6.

 Reversed flow on 113 faces (78.5% area) of pressure-outlet 7.
  1333  9.8396e-02  9.9193e-03  6.1146e-03  1.6427e-16  0:00:02  667

 Reversed flow on 71 faces (30.5% area) of pressure-inlet 6.

 Reversed flow on 122 faces (76.1% area) of pressure-outlet 7.
  1334  9.6363e-02  9.7833e-03  6.0781e-03  1.5982e-16  0:00:01  666

 Reversed flow on 70 faces (29.3% area) of pressure-inlet 6.

 Reversed flow on 126 faces (77.2% area) of pressure-outlet 7.
  1335  1.0202e-01  9.8369e-03  5.9739e-03  1.5677e-16  0:00:01  665

 Reversed flow on 72 faces (31.9% area) of pressure-inlet 6.

 Reversed flow on 124 faces (76.7% area) of pressure-outlet 7.
  1336  9.8694e-02  1.0029e-02  5.8522e-03  1.5642e-16  0:00:01  664

 Reversed flow on 72 faces (31.9% area) of pressure-inlet 6.

 Reversed flow on 124 faces (77.7% area) of pressure-outlet 7.
  1337  1.0249e-01  1.0094e-02  5.7978e-03  1.5343e-16  0:00:01  663

 Reversed flow on 74 faces (34.5% area) of pressure-inlet 6.

 Reversed flow on 119 faces (75.2% area) of pressure-outlet 7.
  1338  1.0776e-01  1.0270e-02  5.6339e-03  1.5094e-16  0:02:13  662

 Reversed flow on 74 faces (34.6% area) of pressure-inlet 6.

 Reversed flow on 100 faces (68.9% area) of pressure-outlet 7.
  1339  1.0282e-01  1.0635e-02  5.4653e-03  1.5232e-16  0:01:46  661

 Reversed flow on 75 faces (36.1% area) of pressure-inlet 6.

 Reversed flow on 122 faces (76.0% area) of pressure-outlet 7.
  1340  9.9149e-02  1.0792e-02  5.4061e-03  1.5120e-16  0:01:25  660

 Reversed flow on 76 faces (37.6% area) of pressure-inlet 6.

 Reversed flow on 123 faces (72.7% area) of pressure-outlet 7.

  iter  continuity  x-velocity  y-velocity      energy     time/iter
  1341  9.6500e-02  1.0976e-02  5.1760e-03  1.5055e-16  0:01:08  659

 Reversed flow on 77 faces (39.2% area) of pressure-inlet 6.

 Reversed flow on 122 faces (63.6% area) of pressure-outlet 7.
  1342  9.4924e-02  1.1011e-02  5.0270e-03  1.4900e-16  0:00:54  658

 Reversed flow on 79 faces (42.5% area) of pressure-inlet 6.

 Reversed flow on 135 faces (67.2% area) of pressure-outlet 7.
  1343  9.2706e-02  1.1004e-02  4.8900e-03  1.5180e-16  0:00:43  657

 Reversed flow on 78 faces (42.6% area) of pressure-inlet 6.

 Reversed flow on 116 faces (46.2% area) of pressure-outlet 7.
  1344  9.7114e-02  1.0808e-02  4.8529e-03  1.4974e-16  0:00:35  656

 Reversed flow on 79 faces (46.0% area) of pressure-inlet 6.

 Reversed flow on 130 faces (45.1% area) of pressure-outlet 7.
  1345  8.8967e-02  1.0584e-02  4.8535e-03  1.4935e-16  0:00:28  655

 Reversed flow on 79 faces (46.0% area) of pressure-inlet 6.

 Reversed flow on 130 faces (48.0% area) of pressure-outlet 7.
  1346  9.1496e-02  1.0259e-02  4.8871e-03  1.4992e-16  0:00:22  654

 Reversed flow on 77 faces (44.2% area) of pressure-inlet 6.

 Reversed flow on 149 faces (53.4% area) of pressure-outlet 7.
  1347  8.4276e-02  9.8988e-03  4.9718e-03  1.5252e-16  0:00:18  653

 Reversed flow on 80 faces (49.9% area) of pressure-inlet 6.

 Reversed flow on 146 faces (52.4% area) of pressure-outlet 7.
  1348  8.1695e-02  9.4786e-03  5.0836e-03  1.5499e-16  0:00:14  652

 Reversed flow on 74 faces (47.0% area) of pressure-inlet 6.

 Reversed flow on 134 faces (54.2% area) of pressure-outlet 7.
  1349  8.4585e-02  9.0553e-03  5.1760e-03  1.5217e-16  0:00:11  651

 Reversed flow on 60 faces (49.7% area) of pressure-inlet 6.

 Reversed flow on 152 faces (57.8% area) of pressure-outlet 7.
  1350  8.2539e-02  8.6781e-03  5.2852e-03  1.5175e-16  0:00:09  650

 Reversed flow on 53 faces (46.4% area) of pressure-inlet 6.

 Reversed flow on 143 faces (56.7% area) of pressure-outlet 7.
  1351  7.9887e-02  8.3928e-03  5.3701e-03  1.5273e-16  0:00:07  649

 Reversed flow on 51 faces (46.0% area) of pressure-inlet 6.

 Reversed flow on 141 faces (57.4% area) of pressure-outlet 7.

  iter  continuity  x-velocity  y-velocity      energy     time/iter
  1352  9.1676e-02  8.1753e-03  5.4038e-03  1.5095e-16  0:00:06  648

 Reversed flow on 50 faces (47.9% area) of pressure-inlet 6.

 Reversed flow on 134 faces (56.0% area) of pressure-outlet 7.
  1353  8.5602e-02  8.0205e-03  5.4011e-03  1.5106e-16  0:00:05  647

 Reversed flow on 47 faces (51.7% area) of pressure-inlet 6.

 Reversed flow on 117 faces (54.0% area) of pressure-outlet 7.
  1354  7.7118e-02  7.9502e-03  5.4553e-03  1.5096e-16  0:00:04  646

 Reversed flow on 45 faces (49.1% area) of pressure-inlet 6.

 Reversed flow on 117 faces (54.1% area) of pressure-outlet 7.
  1355  7.9432e-02  7.9611e-03  5.4472e-03  1.5244e-16  0:00:03  645

 Reversed flow on 44 faces (48.6% area) of pressure-inlet 6.

 Reversed flow on 100 faces (47.9% area) of pressure-outlet 7.
  1356  8.8097e-02  8.0167e-03  5.4424e-03  1.5030e-16  0:00:02  644

 Reversed flow on 45 faces (51.4% area) of pressure-inlet 6.

 Reversed flow on 117 faces (54.0% area) of pressure-outlet 7.
  1357  9.2735e-02  8.1498e-03  5.4869e-03  1.4666e-16  0:02:10  643

 Reversed flow on 43 faces (48.5% area) of pressure-inlet 6.

 Reversed flow on 125 faces (57.5% area) of pressure-outlet 7.
  1358  7.7648e-02  8.2369e-03  5.4353e-03  1.5043e-16  0:01:44  642

 Reversed flow on 42 faces (46.3% area) of pressure-inlet 6.

 Reversed flow on 120 faces (54.8% area) of pressure-outlet 7.
  1359  9.6883e-02  8.3067e-03  5.3764e-03  1.5556e-16  0:01:23  641

 Reversed flow on 41 faces (45.3% area) of pressure-inlet 6.

 Reversed flow on 113 faces (47.8% area) of pressure-outlet 7.
  1360  8.2425e-02  8.3695e-03  5.3854e-03  1.5076e-16  0:01:06  640

 Reversed flow on 40 faces (41.4% area) of pressure-inlet 6.

 Reversed flow on 98 faces (45.2% area) of pressure-outlet 7.
  1361  8.7605e-02  8.3186e-03  5.2414e-03  1.4940e-16  0:00:53  639

 Reversed flow on 44 faces (48.8% area) of pressure-inlet 6.

 Reversed flow on 98 faces (38.8% area) of pressure-outlet 7.
  1362  9.1491e-02  8.2624e-03  5.1265e-03  1.4872e-16  0:00:42  638

 Reversed flow on 43 faces (45.2% area) of pressure-inlet 6.

 Reversed flow on 98 faces (44.3% area) of pressure-outlet 7.

  iter  continuity  x-velocity  y-velocity      energy     time/iter
  1363  7.6879e-02  8.1926e-03  5.0055e-03  1.5278e-16  0:00:34  637

 Reversed flow on 54 faces (46.5% area) of pressure-inlet 6.

 Reversed flow on 115 faces (48.9% area) of pressure-outlet 7.
  1364  7.0624e-02  8.0715e-03  4.9027e-03  1.5444e-16  0:00:27  636

 Reversed flow on 82 faces (48.9% area) of pressure-inlet 6.

 Reversed flow on 111 faces (47.8% area) of pressure-outlet 7.
  1365  7.1682e-02  7.9351e-03  4.7279e-03  1.5104e-16  0:00:22  635

 Reversed flow on 82 faces (48.4% area) of pressure-inlet 6.

 Reversed flow on 112 faces (60.4% area) of pressure-outlet 7.
  1366  6.6876e-02  7.8486e-03  4.5472e-03  1.5348e-16  0:00:17  634

 Reversed flow on 80 faces (44.8% area) of pressure-inlet 6.

 Reversed flow on 105 faces (60.6% area) of pressure-outlet 7.
  1367  5.9726e-02  7.7709e-03  4.4027e-03  1.5435e-16  0:00:14  633

 Reversed flow on 79 faces (42.8% area) of pressure-inlet 6.

 Reversed flow on 98 faces (58.8% area) of pressure-outlet 7.
  1368  6.0033e-02  7.7267e-03  4.2900e-03  1.5512e-16  0:00:11  632

 Reversed flow on 79 faces (43.1% area) of pressure-inlet 6.

 Reversed flow on 77 faces (54.8% area) of pressure-outlet 7.
  1369  5.6607e-02  7.6934e-03  4.1897e-03  1.5318e-16  0:00:09  631

 Reversed flow on 78 faces (41.0% area) of pressure-inlet 6.

 Reversed flow on 106 faces (61.7% area) of pressure-outlet 7.
  1370  5.5447e-02  7.6565e-03  4.1043e-03  1.5492e-16  0:00:07  630

 Reversed flow on 76 faces (37.5% area) of pressure-inlet 6.

 Reversed flow on 108 faces (59.8% area) of pressure-outlet 7.
  1371  5.7822e-02  7.6122e-03  4.0588e-03  1.5445e-16  0:00:06  629

 Reversed flow on 76 faces (37.8% area) of pressure-inlet 6.

 Reversed flow on 115 faces (62.8% area) of pressure-outlet 7.
  1372  5.9638e-02  7.6093e-03  4.0188e-03  1.5359e-16  0:00:04  628

 Reversed flow on 74 faces (34.5% area) of pressure-inlet 6.

 Reversed flow on 112 faces (63.6% area) of pressure-outlet 7.
  1373  5.9070e-02  7.5975e-03  3.9833e-03  1.5258e-16  0:00:04  627

 Reversed flow on 73 faces (33.4% area) of pressure-inlet 6.

 Reversed flow on 98 faces (64.8% area) of pressure-outlet 7.

  iter  continuity  x-velocity  y-velocity      energy     time/iter
  1374  6.3707e-02  7.5793e-03  3.9454e-03  1.5581e-16  0:00:03  626

 Reversed flow on 71 faces (30.8% area) of pressure-inlet 6.

 Reversed flow on 120 faces (71.2% area) of pressure-outlet 7.
  1375  6.4656e-02  7.5684e-03  3.9417e-03  1.5437e-16  0:00:02  625

 Reversed flow on 66 faces (24.6% area) of pressure-inlet 6.

 Reversed flow on 116 faces (72.3% area) of pressure-outlet 7.
  1376  6.2742e-02  7.5661e-03  3.9094e-03  1.5751e-16  0:00:02  624

 Reversed flow on 64 faces (22.6% area) of pressure-inlet 6.

 Reversed flow on 126 faces (74.9% area) of pressure-outlet 7.
  1377  6.8921e-02  7.5492e-03  3.8864e-03  1.5369e-16  0:00:01  623

 Reversed flow on 64 faces (22.6% area) of pressure-inlet 6.

 Reversed flow on 116 faces (74.7% area) of pressure-outlet 7.
  1378  6.4762e-02  7.6315e-03  3.8619e-03  1.5874e-16  0:00:01  622

 Reversed flow on 63 faces (21.7% area) of pressure-inlet 6.

 Reversed flow on 102 faces (67.8% area) of pressure-outlet 7.
  1379  6.8337e-02  7.6637e-03  3.8282e-03  1.5872e-16  0:00:01  621

 Reversed flow on 62 faces (20.8% area) of pressure-inlet 6.

 Reversed flow on 101 faces (68.2% area) of pressure-outlet 7.
  1380  6.9904e-02  7.7467e-03  3.8284e-03  1.5971e-16  0:00:01  620

 Reversed flow on 62 faces (20.8% area) of pressure-inlet 6.

[...]
  1912  9.4836e-02  9.0887e-03  6.0390e-03  1.7676e-16  0:00:03   88

 Reversed flow on 63 faces (21.7% area) of pressure-inlet 6.

 Reversed flow on 128 faces (77.1% area) of pressure-outlet 7.

  iter  continuity  x-velocity  y-velocity      energy     time/iter
  1913  9.5178e-02  9.0997e-03  6.0338e-03  1.7669e-16  0:00:02   87

 Reversed flow on 62 faces (20.8% area) of pressure-inlet 6.

 Reversed flow on 131 faces (80.4% area) of pressure-outlet 7.
  1914  9.1101e-02  9.1963e-03  6.0103e-03  1.7820e-16  0:00:02   86

 Reversed flow on 62 faces (20.8% area) of pressure-inlet 6.

 Reversed flow on 138 faces (83.6% area) of pressure-outlet 7.
  1915  9.3954e-02  9.2255e-03  5.9388e-03  1.7676e-16  0:00:01   85

 Reversed flow on 63 faces (21.7% area) of pressure-inlet 6.

 Reversed flow on 135 faces (83.8% area) of pressure-outlet 7.
  1916  9.2601e-02  9.3315e-03  5.8460e-03  1.7435e-16  0:00:01   84

 Reversed flow on 63 faces (21.7% area) of pressure-inlet 6.

 Reversed flow on 135 faces (82.7% area) of pressure-outlet 7.
  1917  8.6953e-02  9.4484e-03  5.7646e-03  1.6653e-16  0:00:01   83

 Reversed flow on 64 faces (22.7% area) of pressure-inlet 6.

 Reversed flow on 119 faces (77.8% area) of pressure-outlet 7.
  1918  8.3283e-02  9.5244e-03  5.7302e-03  1.6178e-16  0:00:01   82

 Reversed flow on 63 faces (21.7% area) of pressure-inlet 6.

 Reversed flow on 107 faces (72.6% area) of pressure-outlet 7.
  1919  7.9479e-02  9.6010e-03  5.6226e-03  1.5706e-16  0:00:01   81

 Reversed flow on 64 faces (22.6% area) of pressure-inlet 6.

 Reversed flow on 122 faces (76.5% area) of pressure-outlet 7.
  1920  7.2101e-02  9.6899e-03  5.5754e-03  1.5526e-16  0:00:00   80

 Reversed flow on 65 faces (23.6% area) of pressure-inlet 6.

 Reversed flow on 119 faces (74.0% area) of pressure-outlet 7.
  1921  7.4207e-02  9.6354e-03  5.5570e-03  1.5472e-16  0:00:00   79

 Reversed flow on 67 faces (25.7% area) of pressure-inlet 6.

 Reversed flow on 120 faces (74.8% area) of pressure-outlet 7.
  1922  7.4584e-02  9.6742e-03  5.4994e-03  1.5759e-16  0:00:00   78

 Reversed flow on 66 faces (24.7% area) of pressure-inlet 6.

 Reversed flow on 115 faces (69.6% area) of pressure-outlet 7.
  1923  8.0659e-02  9.7143e-03  5.4652e-03  1.5694e-16  0:00:00   77

 Reversed flow on 68 faces (26.8% area) of pressure-inlet 6.

 Reversed flow on 122 faces (68.6% area) of pressure-outlet 7.

  iter  continuity  x-velocity  y-velocity      energy     time/iter
  1924  8.1553e-02  9.7264e-03  5.4970e-03  1.5417e-16  0:00:00   76

 Reversed flow on 68 faces (26.9% area) of pressure-inlet 6.

 Reversed flow on 129 faces (64.2% area) of pressure-outlet 7.
  1925  8.0133e-02  9.7037e-03  5.5218e-03  1.5349e-16  0:00:00   75

 Reversed flow on 69 faces (28.0% area) of pressure-inlet 6.

 Reversed flow on 138 faces (65.6% area) of pressure-outlet 7.
  1926  8.0602e-02  9.7093e-03  5.5075e-03  1.5388e-16  0:00:00   74

 Reversed flow on 70 faces (29.3% area) of pressure-inlet 6.

 Reversed flow on 120 faces (44.1% area) of pressure-outlet 7.
  1927  8.0778e-02  9.6742e-03  5.5147e-03  1.5525e-16  0:00:00   73

 Reversed flow on 70 faces (29.3% area) of pressure-inlet 6.

 Reversed flow on 122 faces (46.1% area) of pressure-outlet 7.
  1928  8.0099e-02  9.5858e-03  5.4966e-03  1.5537e-16  0:00:14   72

 Reversed flow on 71 faces (30.5% area) of pressure-inlet 6.

 Reversed flow on 126 faces (43.5% area) of pressure-outlet 7.
  1929  8.0467e-02  9.4777e-03  5.4794e-03  1.5555e-16  0:00:11   71

 Reversed flow on 72 faces (31.8% area) of pressure-inlet 6.

 Reversed flow on 125 faces (41.5% area) of pressure-outlet 7.
  1930  8.4089e-02  9.3216e-03  5.4136e-03  1.5289e-16  0:00:09   70

 Reversed flow on 72 faces (31.9% area) of pressure-inlet 6.

 Reversed flow on 134 faces (44.3% area) of pressure-outlet 7.
  1931  8.0546e-02  9.1650e-03  5.4581e-03  1.5700e-16  0:00:07   69

 Reversed flow on 74 faces (34.6% area) of pressure-inlet 6.

 Reversed flow on 133 faces (46.9% area) of pressure-outlet 7.
  1932  7.7476e-02  9.0151e-03  5.4275e-03  1.5511e-16  0:00:06   68

 Reversed flow on 72 faces (31.8% area) of pressure-inlet 6.

 Reversed flow on 135 faces (50.3% area) of pressure-outlet 7.
  1933  7.3846e-02  8.8852e-03  5.4161e-03  1.5378e-16  0:00:04   67

 Reversed flow on 72 faces (31.8% area) of pressure-inlet 6.

 Reversed flow on 130 faces (52.6% area) of pressure-outlet 7.
  1934  8.0547e-02  8.7443e-03  5.4232e-03  1.5084e-16  0:00:03   66

 Reversed flow on 73 faces (33.1% area) of pressure-inlet 6.

 Reversed flow on 127 faces (51.6% area) of pressure-outlet 7.

  iter  continuity  x-velocity  y-velocity      energy     time/iter
  1935  8.4640e-02  8.6497e-03  5.4153e-03  1.5412e-16  0:00:03   65

 Reversed flow on 72 faces (31.8% area) of pressure-inlet 6.

 Reversed flow on 135 faces (54.0% area) of pressure-outlet 7.
  1936  8.7017e-02  8.6003e-03  5.3097e-03  1.5410e-16  0:00:02   64

 Reversed flow on 73 faces (33.2% area) of pressure-inlet 6.

 Reversed flow on 144 faces (57.4% area) of pressure-outlet 7.
  1937  8.1078e-02  8.5724e-03  5.2043e-03  1.5191e-16  0:00:02   63

 Reversed flow on 71 faces (30.5% area) of pressure-inlet 6.

 Reversed flow on 142 faces (55.6% area) of pressure-outlet 7.
  1938  7.4454e-02  8.5265e-03  5.1039e-03  1.4907e-16  0:00:01   62

 Reversed flow on 71 faces (30.5% area) of pressure-inlet 6.

 Reversed flow on 138 faces (53.4% area) of pressure-outlet 7.
  1939  7.1994e-02  8.4331e-03  4.9793e-03  1.4994e-16  0:00:01   61

 Reversed flow on 70 faces (29.2% area) of pressure-inlet 6.

 Reversed flow on 128 faces (47.9% area) of pressure-outlet 7.
  1940  7.4382e-02  8.3491e-03  4.8819e-03  1.5169e-16  0:00:01   60

 Reversed flow on 69 faces (28.0% area) of pressure-inlet 6.

 Reversed flow on 132 faces (50.1% area) of pressure-outlet 7.
  1941  7.9273e-02  8.3392e-03  4.8100e-03  1.5154e-16  0:00:01   59

 Reversed flow on 68 faces (26.8% area) of pressure-inlet 6.

 Reversed flow on 116 faces (49.1% area) of pressure-outlet 7.
  1942  6.8423e-02  8.3971e-03  4.7547e-03  1.4961e-16  0:00:01   58

 Reversed flow on 68 faces (26.8% area) of pressure-inlet 6.

 Reversed flow on 119 faces (53.2% area) of pressure-outlet 7.
  1943  6.2271e-02  8.4438e-03  4.7196e-03  1.5158e-16  0:00:00   57

 Reversed flow on 67 faces (25.7% area) of pressure-inlet 6.

 Reversed flow on 111 faces (49.8% area) of pressure-outlet 7.
  1944  6.0269e-02  8.4883e-03  4.7415e-03  1.5078e-16  0:00:00   56

 Reversed flow on 66 faces (24.6% area) of pressure-inlet 6.

 Reversed flow on 107 faces (51.3% area) of pressure-outlet 7.
  1945  5.9799e-02  8.6078e-03  4.7463e-03  1.5131e-16  0:00:00   55

 Reversed flow on 65 faces (23.6% area) of pressure-inlet 6.

 Reversed flow on 92 faces (46.5% area) of pressure-outlet 7.

  iter  continuity  x-velocity  y-velocity      energy     time/iter
  1946  5.6549e-02  8.6853e-03  4.7547e-03  1.5268e-16  0:00:00   54

 Reversed flow on 64 faces (22.6% area) of pressure-inlet 6.

 Reversed flow on 93 faces (49.6% area) of pressure-outlet 7.
  1947  5.6371e-02  8.7298e-03  4.7687e-03  1.5504e-16  0:00:00   53

 Reversed flow on 63 faces (21.7% area) of pressure-inlet 6.

 Reversed flow on 101 faces (53.1% area) of pressure-outlet 7.
  1948  5.5379e-02  8.7611e-03  4.7752e-03  1.5371e-16  0:00:00   52

 Reversed flow on 62 faces (20.8% area) of pressure-inlet 6.

 Reversed flow on 94 faces (48.2% area) of pressure-outlet 7.
  1949  5.7251e-02  8.7960e-03  4.8060e-03  1.5576e-16  0:00:00   51

 Reversed flow on 61 faces (19.9% area) of pressure-inlet 6.

 Reversed flow on 104 faces (54.3% area) of pressure-outlet 7.
  1950  5.9856e-02  8.8097e-03  4.8708e-03  1.5640e-16  0:00:00   50

 Reversed flow on 60 faces (19.0% area) of pressure-inlet 6.

 Reversed flow on 113 faces (60.3% area) of pressure-outlet 7.
  1951  6.1334e-02  8.8322e-03  4.9196e-03  1.6198e-16  0:00:00   49

 Reversed flow on 60 faces (19.0% area) of pressure-inlet 6.

 Reversed flow on 111 faces (59.5% area) of pressure-outlet 7.
  1952  6.3978e-02  8.8447e-03  4.9822e-03  1.6574e-16  0:00:00   48

 Reversed flow on 59 faces (18.2% area) of pressure-inlet 6.

 Reversed flow on 107 faces (57.7% area) of pressure-outlet 7.
  1953  6.1903e-02  8.8676e-03  5.0179e-03  1.6519e-16  0:00:00   47

 Reversed flow on 59 faces (18.2% area) of pressure-inlet 6.

 Reversed flow on 99 faces (54.6% area) of pressure-outlet 7.
  1954  6.3711e-02  8.8800e-03  5.0796e-03  1.6659e-16  0:00:09   46

 Reversed flow on 58 faces (17.4% area) of pressure-inlet 6.

 Reversed flow on 106 faces (62.1% area) of pressure-outlet 7.
  1955  6.2836e-02  8.8923e-03  5.1338e-03  1.6772e-16  0:00:07   45

 Reversed flow on 58 faces (17.4% area) of pressure-inlet 6.

 Reversed flow on 99 faces (61.1% area) of pressure-outlet 7.
  1956  6.4057e-02  8.9072e-03  5.1538e-03  1.6502e-16  0:00:06   44

 Reversed flow on 58 faces (17.4% area) of pressure-inlet 6.

 Reversed flow on 112 faces (64.0% area) of pressure-outlet 7.

  iter  continuity  x-velocity  y-velocity      energy     time/iter
  1957  6.4510e-02  9.0098e-03  5.1498e-03  1.6568e-16  0:00:04   43

 Reversed flow on 58 faces (17.4% area) of pressure-inlet 6.

 Reversed flow on 114 faces (65.1% area) of pressure-outlet 7.
  1958  6.4690e-02  9.1294e-03  5.1086e-03  1.6486e-16  0:00:03   42

 Reversed flow on 57 faces (16.7% area) of pressure-inlet 6.

 Reversed flow on 110 faces (62.9% area) of pressure-outlet 7.
  1959  6.4549e-02  9.2634e-03  5.1077e-03  1.6469e-16  0:00:03   41

 Reversed flow on 57 faces (16.7% area) of pressure-inlet 6.

 Reversed flow on 118 faces (66.8% area) of pressure-outlet 7.
  1960  6.3366e-02  9.3997e-03  4.9865e-03  1.6230e-16  0:00:02   40

 Reversed flow on 58 faces (17.5% area) of pressure-inlet 6.

 Reversed flow on 117 faces (69.1% area) of pressure-outlet 7.
  1961  6.2885e-02  9.5065e-03  4.9017e-03  1.6041e-16  0:00:02   39

 Reversed flow on 60 faces (19.2% area) of pressure-inlet 6.

 Reversed flow on 118 faces (71.4% area) of pressure-outlet 7.
  1962  6.4692e-02  9.6074e-03  4.8275e-03  1.5497e-16  0:00:01   38

 Reversed flow on 60 faces (19.2% area) of pressure-inlet 6.

 Reversed flow on 125 faces (72.7% area) of pressure-outlet 7.
  1963  6.6259e-02  9.7455e-03  4.7691e-03  1.5412e-16  0:00:01   37

 Reversed flow on 62 faces (20.9% area) of pressure-inlet 6.

 Reversed flow on 120 faces (71.5% area) of pressure-outlet 7.
  1964  6.8265e-02  9.9053e-03  4.7141e-03  1.5343e-16  0:00:01   36

 Reversed flow on 58 faces (17.4% area) of pressure-inlet 6.

 Reversed flow on 96 faces (68.8% area) of pressure-outlet 7.
  1965  6.9267e-02  1.0053e-02  4.6719e-03  1.5411e-16  0:00:01   35

 Reversed flow on 58 faces (17.4% area) of pressure-inlet 6.

 Reversed flow on 112 faces (74.5% area) of pressure-outlet 7.
  1966  6.6217e-02  1.0183e-02  4.6418e-03  1.5239e-16  0:00:00   34

 Reversed flow on 58 faces (18.1% area) of pressure-inlet 6.

 Reversed flow on 131 faces (79.0% area) of pressure-outlet 7.
  1967  6.5058e-02  1.0283e-02  4.6691e-03  1.5291e-16  0:00:00   33

 Reversed flow on 60 faces (19.8% area) of pressure-inlet 6.

 Reversed flow on 130 faces (77.9% area) of pressure-outlet 7.

  iter  continuity  x-velocity  y-velocity      energy     time/iter
  1968  6.1906e-02  1.0321e-02  4.6992e-03  1.5601e-16  0:00:00   32

 Reversed flow on 58 faces (18.9% area) of pressure-inlet 6.

 Reversed flow on 132 faces (76.2% area) of pressure-outlet 7.
  1969  6.2543e-02  1.0356e-02  4.7027e-03  1.5273e-16  0:00:00   31

 Reversed flow on 59 faces (20.6% area) of pressure-inlet 6.

 Reversed flow on 122 faces (72.0% area) of pressure-outlet 7.
  1970  6.1796e-02  1.0383e-02  4.6546e-03  1.5565e-16  0:00:00   30

 Reversed flow on 59 faces (21.3% area) of pressure-inlet 6.

 Reversed flow on 113 faces (62.3% area) of pressure-outlet 7.
  1971  6.3373e-02  1.0389e-02  4.5798e-03  1.5205e-16  0:00:00   29

 Reversed flow on 55 faces (19.5% area) of pressure-inlet 6.

 Reversed flow on 127 faces (65.0% area) of pressure-outlet 7.
  1972  6.0933e-02  1.0380e-02  4.5178e-03  1.5154e-16  0:00:00   28

 Reversed flow on 55 faces (19.3% area) of pressure-inlet 6.

 Reversed flow on 114 faces (41.6% area) of pressure-outlet 7.
  1973  5.9097e-02  1.0329e-02  4.4552e-03  1.5134e-16  0:00:00   27

 Reversed flow on 57 faces (20.3% area) of pressure-inlet 6.

 Reversed flow on 109 faces (38.3% area) of pressure-outlet 7.
  1974  5.8991e-02  1.0252e-02  4.3853e-03  1.5195e-16  0:00:00   26

 Reversed flow on 55 faces (19.3% area) of pressure-inlet 6.

 Reversed flow on 117 faces (39.3% area) of pressure-outlet 7.
  1975  5.4680e-02  1.0127e-02  4.2848e-03  1.5399e-16  0:00:00   25

 Reversed flow on 54 faces (19.2% area) of pressure-inlet 6.

 Reversed flow on 94 faces (33.2% area) of pressure-outlet 7.
  1976  5.0473e-02  9.8611e-03  4.1435e-03  1.5380e-16  0:00:00   24

 Reversed flow on 55 faces (19.3% area) of pressure-inlet 6.

 Reversed flow on 100 faces (30.7% area) of pressure-outlet 7.
  1977  5.1454e-02  9.5246e-03  4.0113e-03  1.5404e-16  0:00:00   23

 Reversed flow on 58 faces (19.6% area) of pressure-inlet 6.

 Reversed flow on 111 faces (31.5% area) of pressure-outlet 7.
  1978  4.8495e-02  9.1600e-03  3.9099e-03  1.5416e-16  0:00:04   22

 Reversed flow on 55 faces (19.3% area) of pressure-inlet 6.

 Reversed flow on 114 faces (30.7% area) of pressure-outlet 7.

  iter  continuity  x-velocity  y-velocity      energy     time/iter
  1979  5.0959e-02  8.8002e-03  3.7835e-03  1.5469e-16  0:00:03   21

 Reversed flow on 55 faces (18.6% area) of pressure-inlet 6.

 Reversed flow on 124 faces (35.2% area) of pressure-outlet 7.
  1980  5.2176e-02  8.4324e-03  3.6985e-03  1.5454e-16  0:00:03   20

 Reversed flow on 59 faces (18.9% area) of pressure-inlet 6.

 Reversed flow on 115 faces (29.6% area) of pressure-outlet 7.
  1981  4.6736e-02  8.0980e-03  3.6280e-03  1.5208e-16  0:00:02   19

 Reversed flow on 58 faces (18.9% area) of pressure-inlet 6.

 Reversed flow on 114 faces (30.1% area) of pressure-outlet 7.
  1982  4.9042e-02  7.8057e-03  3.5537e-03  1.5177e-16  0:00:01   18

 Reversed flow on 59 faces (18.2% area) of pressure-inlet 6.

 Reversed flow on 111 faces (25.6% area) of pressure-outlet 7.
  1983  5.3843e-02  7.5199e-03  3.4933e-03  1.5182e-16  0:00:01   17

 Reversed flow on 59 faces (18.2% area) of pressure-inlet 6.

 Reversed flow on 121 faces (33.5% area) of pressure-outlet 7.
  1984  4.2860e-02  7.2611e-03  3.4270e-03  1.5194e-16  0:00:01   16

 Reversed flow on 58 faces (17.4% area) of pressure-inlet 6.

 Reversed flow on 112 faces (26.0% area) of pressure-outlet 7.
  1985  4.5726e-02  7.0376e-03  3.3573e-03  1.5291e-16  0:00:01   15

 Reversed flow on 58 faces (17.4% area) of pressure-inlet 6.

 Reversed flow on 118 faces (28.9% area) of pressure-outlet 7.
  1986  4.3040e-02  6.8860e-03  3.2984e-03  1.5301e-16  0:00:00   14

 Reversed flow on 57 faces (16.7% area) of pressure-inlet 6.

 Reversed flow on 106 faces (23.0% area) of pressure-outlet 7.
  1987  4.4413e-02  6.7745e-03  3.2565e-03  1.5048e-16  0:00:00   13

 Reversed flow on 56 faces (16.0% area) of pressure-inlet 6.

 Reversed flow on 114 faces (26.4% area) of pressure-outlet 7.
  1988  5.8266e-02  6.6945e-03  3.2185e-03  1.5093e-16  0:00:00   12

 Reversed flow on 56 faces (16.0% area) of pressure-inlet 6.

 Reversed flow on 108 faces (23.7% area) of pressure-outlet 7.
  1989  5.1394e-02  6.6378e-03  3.1895e-03  1.5071e-16  0:00:00   11

 Reversed flow on 55 faces (15.3% area) of pressure-inlet 6.

 Reversed flow on 119 faces (35.3% area) of pressure-outlet 7.

  iter  continuity  x-velocity  y-velocity      energy     time/iter
  1990  6.6506e-02  6.6327e-03  3.1593e-03  1.5367e-16  0:00:00   10

 Reversed flow on 54 faces (14.6% area) of pressure-inlet 6.

 Reversed flow on 95 faces (22.5% area) of pressure-outlet 7.
  1991  4.6908e-02  6.6327e-03  3.1323e-03  1.5359e-16  0:00:00    9

 Reversed flow on 53 faces (14.0% area) of pressure-inlet 6.

 Reversed flow on 97 faces (31.0% area) of pressure-outlet 7.
  1992  4.8391e-02  6.6589e-03  3.1341e-03  1.5716e-16  0:00:00    8

 Reversed flow on 52 faces (13.3% area) of pressure-inlet 6.

 Reversed flow on 94 faces (25.4% area) of pressure-outlet 7.
  1993  4.6505e-02  6.7269e-03  3.1559e-03  1.5640e-16  0:00:00    7

 Reversed flow on 52 faces (13.3% area) of pressure-inlet 6.

 Reversed flow on 104 faces (36.4% area) of pressure-outlet 7.
  1994  4.2281e-02  6.8349e-03  3.1777e-03  1.5748e-16  0:00:00    6

 Reversed flow on 51 faces (12.7% area) of pressure-inlet 6.

 Reversed flow on 89 faces (28.7% area) of pressure-outlet 7.
  1995  5.1937e-02  6.9244e-03  3.2034e-03  1.5599e-16  0:00:00    5

 Reversed flow on 50 faces (12.2% area) of pressure-inlet 6.

 Reversed flow on 83 faces (31.1% area) of pressure-outlet 7.
  1996  4.7866e-02  7.0818e-03  3.2272e-03  1.5380e-16  0:00:00    4

 Reversed flow on 49 faces (11.6% area) of pressure-inlet 6.

 Reversed flow on 96 faces (25.2% area) of pressure-outlet 7.
  1997  4.1134e-02  7.2302e-03  3.2787e-03  1.5480e-16  0:00:01    3

 Reversed flow on 49 faces (11.6% area) of pressure-inlet 6.

 Reversed flow on 105 faces (39.8% area) of pressure-outlet 7.
  1998  3.8873e-02  7.3071e-03  3.3253e-03  1.5357e-16  0:00:00    2

 Reversed flow on 48 faces (11.1% area) of pressure-inlet 6.

 Reversed flow on 82 faces (30.1% area) of pressure-outlet 7.
  1999  3.7511e-02  7.4057e-03  3.3805e-03  1.5374e-16  0:00:00    1

 Reversed flow on 47 faces (10.6% area) of pressure-inlet 6.

 Reversed flow on 78 faces (24.3% area) of pressure-outlet 7.
  2000  3.6665e-02  7.5005e-03  3.4574e-03  1.5431e-16  0:00:00    0
Writing "| gzip -2cf > SolutionMonitor.gz"...
Writing temporary file C:\\Users\\blake26\\AppData\\Local\\Temp\\flntgz-33402 ...
Done.

Writing data to W:\\Documents\\AAE412finalproj_files\\dp0\\FFF\\Fluent\\FFF.ip ...
	x-coord
	y-coord
	pressure
	x-velocity
	y-velocity
	temperature
Done.
Writing "| gzip -2cf > FFF-2.cas.gz"...
Writing temporary file C:\\Users\\blake26\\AppData\\Local\\Temp\\flntgz-33403 ...
   14900 quadrilateral cells, zone  3, binary.
   14900 cell partition ids, zone  3, 4 partitions, binary.
   29259 2D interior faces, zone  1, binary.
     220 2D interior faces, zone  2, binary.
     100 2D pressure-inlet faces, zone  6, binary.
     231 2D pressure-outlet faces, zone  7, binary.
     190 2D axis faces, zone  8, binary.
      20 2D pressure-inlet faces, zone  9, binary.
     101 2D wall faces, zone 10, binary.
   15222 nodes, binary.
   15222 node flags, binary.
Done.

Writing "| gzip -2cf > FFF-2-02000.dat.gz"...
Writing temporary file C:\\Users\\blake26\\AppData\\Local\\Temp\\flntgz-33404 ...
Done.


Performance Timer for 1000 iterations on 4 compute nodes
  Average wall-clock time per iteration:              0.007 sec
  Global reductions per iteration:                       67 ops
  Global reductions time per iteration:               0.000 sec (0.0%)
  Message count per iteration:                         2606 messages
  Data transfer per iteration:                        0.475 MB
  LE solves per iteration:                                4 solves
  LE wall-clock time per iteration:                   0.003 sec (47.9%)
  LE global solves per iteration:                         6 solves
  LE global wall-clock time per iteration:            0.000 sec (1.2%)
  LE global matrix maximum size:                        27
  AMG cycles per iteration:                           8.523 cycles
  Relaxation sweeps per iteration:                      215 sweeps
  Relaxation exchanges per iteration:                     0 exchanges
  LE early protections (stall) per iteration:           0.002 times
  LE early protections (divergence) per iteration:      0.000 times

  Total wall-clock time:                              6.979 sec

