
Build Time: Apr 16 2019 10:49:06 
Executable Path: C:/PROGRA~1/ANSYSI~1/v194/fluent/ntbin/win64/fluent.exe

-------------------------------------------------------------------------------
ID    Hostname        Core  O.S.         PID    Vendor                    
-------------------------------------------------------------------------------
n3    X-ARMS2106PC64  4/12  Windows-x64  11320  Intel(R) Core(TM) i7-8700 
n2    X-ARMS2106PC64  3/12  Windows-x64  8628   Intel(R) Core(TM) i7-8700 
n1    X-ARMS2106PC64  2/12  Windows-x64  9984   Intel(R) Core(TM) i7-8700 
n0*   X-ARMS2106PC64  1/12  Windows-x64  11664  Intel(R) Core(TM) i7-8700 
host  X-ARMS2106PC64        Windows-x64  9788   Intel(R) Core(TM) i7-8700 

MPI Option Selected: ibmmpi
Selected system interconnect: default
-------------------------------------------------------------------------------
Warning: Ignoring WB preference save-post-processing-images
Multicore SMT processors detected. Processor affinity set!
Reading "C:\Users\deubanks\AppData\Local\Temp\NozzleB.tmp\NozzleB_files\dp0\FFF-5\MECH\FFF-5.msh"...
Buffering for file scan...

    1028 nodes, binary.
     160 nodes, binary.
    2056 2D interior faces, zone  1, binary.
      80 2D interior faces, zone  2, binary.
       5 2D velocity-inlet faces, zone  6, binary.
      25 2D velocity-inlet faces, zone  7, binary.
      30 2D wall faces, zone  8, binary.
      65 2D wall faces, zone  9, binary.
      35 2D axis faces, zone 10, binary.
    1109 mixed cells, zone  3, binary.


Following contexts active in the case file have been de-activated because of their current context control conditions:
"coupled-pseudo-transient"

Building...
     mesh
	auto partitioning mesh by Metis (fast),
	distributing mesh
		parts....,
		faces....,
		nodes....,
		cells....,
        bandwidth reduction using Reverse Cuthill-McKee: 136/17 = 8
     materials,
     interface,
     domains,
	mixture
     zones,
	axis
	farfield
	nozzlewall
	ambientinlet
	flowinlet
	solid-surface_body
	surface_body
	interior-surface_bodySetting solid-surface_body (mixture) ... Done.

Applying mesh operation "Change Zone Type"

Applying mesh operation "Change Zone Type [ 2 ]"

Applying mesh operation "Change Zone Type [ 3 ]"
 Setting zone id of solid-surface_body to 3.
 Setting zone id of flowinlet to 6.
 Setting zone id of farfield to 9.
 Setting zone id of ambientinlet to 7.
 Setting zone id of interior-surface_body to 1.
 Setting zone id of surface_body to 2.
 Setting zone id of nozzlewall to 8.
 Setting zone id of axis to 10.
Done.
Setting solid-surface_body (mixture) ... Done.
Setting flowinlet (mixture) ... Done.
Setting farfield (mixture) ... Done.
Setting ambientinlet (mixture) ... Done.
Setting interior-surface_body (mixture) ... Done.
Setting surface_body (mixture) ... Done.
Setting nozzlewall (mixture) ... Done.
Setting axis (mixture) ... Done.

     parallel,
Done.

Preparing mesh for display...
Warning: The use of axis boundary conditions is not appropriate for
         a 2D/3D flow problem. Please consider changing the zone
         type to symmetry or wall, or the problem to axisymmetric.

Warning: The use of axis boundary conditions is not appropriate for
         a 2D/3D flow problem. Please consider changing the zone
         type to symmetry or wall, or the problem to axisymmetric.

Done.
Warning: The use of axis boundary conditions is not appropriate for
         a 2D/3D flow problem. Please consider changing the zone
         type to symmetry or wall, or the problem to axisymmetric.

"Updating Setup cell..."
"Updating Solution cell..."
Reading C:\\Users\\deubanks\\AppData\\Local\\Temp\\NozzleB.tmp\\NozzleB_files\\dp0\\FFF-5\\Fluent\\FFF-5.2.ip...
Reading IP data ...
	x-coord
	y-coord
	pressure
	x-velocity
	y-velocity
	temperature
  Done.
  Initializing values...
  Done.
Writing "| gzip -2cf > FFF-5-Setup-Output.cas.gz"...
Writing temporary file C:\\Users\\deubanks\\AppData\\Local\\Temp\\flntgz-97882 ...
    1109 mixed cells, zone  3, binary.
    1109 cell partition ids, zone  3, 4 partitions, binary.
    2056 2D interior faces, zone  1, binary.
      80 2D interior faces, zone  2, binary.
       5 2D pressure-inlet faces, zone  6, binary.
      25 2D pressure-inlet faces, zone  7, binary.
      30 2D wall faces, zone  8, binary.
      65 2D pressure-outlet faces, zone  9, binary.
      35 2D axis faces, zone 10, binary.
    1188 nodes, binary.
    1188 node flags, binary.
Done.


  iter  continuity  x-velocity  y-velocity      energy     time/iter

 Reversed flow on 10 faces (35.0% area) of pressure-outlet 9.
     1  1.0000e+00  1.0742e-02  6.1191e-03  0.0000e+00  0:00:00  999

 Reversed flow on 11 faces (41.2% area) of pressure-outlet 9.
     2  9.8333e-01  1.4410e-02  6.1574e-03  0.0000e+00  0:00:00  998

 Reversed flow on 11 faces (44.9% area) of pressure-outlet 9.
     3  8.7317e-01  1.2218e-02  4.6516e-03  0.0000e+00  0:00:00  997

 Reversed flow on 10 faces (42.9% area) of pressure-outlet 9.
     4  7.7591e-01  1.2832e-02  4.5301e-03  0.0000e+00  0:00:00  996

 Reversed flow on 10 faces (39.0% area) of pressure-outlet 9.
     5  7.2802e-01  1.2507e-02  4.7582e-03  0.0000e+00  0:00:00  995

 Reversed flow on 9 faces (27.1% area) of pressure-outlet 9.
     6  6.4268e-01  1.2262e-02  4.6721e-03  1.5153e-16  0:00:00  994

 Reversed flow on 9 faces (22.2% area) of pressure-outlet 9.
     7  6.2822e-01  1.1946e-02  4.6919e-03  1.5411e-16  0:00:00  993

 Reversed flow on 8 faces (12.2% area) of pressure-outlet 9.
     8  6.2314e-01  1.1821e-02  4.5586e-03  1.5153e-16  0:00:00  992

 Reversed flow on 8 faces (10.7% area) of pressure-outlet 9.
     9  5.9808e-01  1.1495e-02  4.4871e-03  1.5036e-16  0:00:00  991

 Reversed flow on 8 faces (9.3% area) of pressure-outlet 9.
    10  6.1943e-01  1.1136e-02  4.6061e-03  1.4491e-16  0:16:30  990

 Reversed flow on 6 faces (5.2% area) of pressure-outlet 9.
    11  6.6229e-01  1.1551e-02  4.7258e-03  1.6940e-16  0:13:11  989

 Reversed flow on 1 face (0.8% area) of pressure-outlet 9.

  iter  continuity  x-velocity  y-velocity      energy     time/iter
    12  6.5249e-01  1.1879e-02  4.6977e-03  1.4567e-16  0:10:32  988
    13  8.1201e-01  1.1906e-02  4.7217e-03  1.4105e-16  0:08:25  987
    14  7.4923e-01  1.1891e-02  4.7500e-03  1.5380e-16  0:06:44  986

 Reversed flow on 4 faces (8.8% area) of pressure-outlet 9.
    15  7.4745e-01  1.1368e-02  4.4516e-03  1.5716e-16  0:05:23  985

 Reversed flow on 6 faces (13.4% area) of pressure-outlet 9.
    16  9.4036e-01  1.0997e-02  4.3014e-03  1.5508e-16  0:04:18  984

 Reversed flow on 5 faces (11.8% area) of pressure-outlet 9.
    17  8.3735e-01  1.1292e-02  4.0905e-03  1.5649e-16  0:03:26  983
    18  8.4014e-01  1.1464e-02  3.9471e-03  1.7069e-16  0:02:45  982
    19  7.6439e-01  1.1619e-02  3.9471e-03  1.7069e-16  0:02:12  981

 Reversed flow on 1 face (1.4% area) of pressure-outlet 9.
    20  7.7095e-01  1.2327e-02  4.2981e-03  1.7998e-16  0:01:45  980

 Reversed flow on 17 faces (33.6% area) of pressure-outlet 9.
    21  7.2917e-01  1.3073e-02  4.4631e-03  1.7377e-16  0:01:24  979

 Reversed flow on 8 faces (12.8% area) of pressure-outlet 9.
    22  6.2184e-01  1.3273e-02  4.5717e-03  1.7932e-16  0:01:07  978

 Reversed flow on 22 faces (51.6% area) of pressure-outlet 9.

  iter  continuity  x-velocity  y-velocity      energy     time/iter
    23  7.1034e-01  1.3112e-02  4.4503e-03  1.6911e-16  0:00:54  977

 Reversed flow on 6 faces (7.8% area) of pressure-outlet 9.
    24  6.4237e-01  1.3251e-02  4.4100e-03  1.6349e-16  0:00:43  976

 Reversed flow on 5 faces (5.3% area) of pressure-outlet 9.
    25  6.2418e-01  1.2496e-02  4.6451e-03  1.5995e-16  0:00:34  975

 Reversed flow on 4 faces (3.4% area) of pressure-outlet 9.
    26  5.9641e-01  1.2660e-02  4.5292e-03  1.5947e-16  0:00:27  974

 Reversed flow on 2 faces (1.5% area) of pressure-outlet 9.
    27  7.0052e-01  1.2145e-02  4.4783e-03  1.5600e-16  0:00:22  973
    28  8.6826e-01  1.2344e-02  4.4248e-03  1.5176e-16  0:00:18  972

 Reversed flow on 5 faces (1.5% area) of pressure-outlet 9.
    29  9.1801e-01  1.2766e-02  4.4646e-03  1.6476e-16  0:00:14  971

 Reversed flow on 9 faces (17.8% area) of pressure-outlet 9.
    30  7.5977e-01  1.2455e-02  4.3716e-03  1.4992e-16  0:00:11  970

 Reversed flow on 13 faces (22.5% area) of pressure-outlet 9.
    31  7.4361e-01  1.1639e-02  4.2218e-03  1.5339e-16  0:00:09  969

 Reversed flow on 18 faces (49.8% area) of pressure-outlet 9.
    32  8.9298e-01  1.1184e-02  4.0303e-03  1.5580e-16  0:00:07  968

 Reversed flow on 4 faces (6.7% area) of pressure-outlet 9.
    33  9.0660e-01  1.1288e-02  3.9772e-03  1.5872e-16  0:00:06  967

  iter  continuity  x-velocity  y-velocity      energy     time/iter
    34  8.4370e-01  1.1405e-02  3.8578e-03  1.6707e-16  0:00:05  966

 Reversed flow on 2 faces (2.0% area) of pressure-outlet 9.
    35  8.3257e-01  1.2098e-02  3.7952e-03  1.6932e-16  0:00:04  965

 Reversed flow on 26 faces (37.3% area) of pressure-outlet 9.
    36  8.1639e-01  1.2765e-02  4.2794e-03  1.7561e-16  0:00:03  964

 Reversed flow on 14 faces (35.5% area) of pressure-outlet 9.
    37  6.9329e-01  1.2490e-02  4.7354e-03  1.4831e-16  0:00:02  963

 Reversed flow on 19 faces (31.4% area) of pressure-outlet 9.
    38  6.0153e-01  1.2390e-02  4.3123e-03  1.6562e-16  0:00:02  962

 Reversed flow on 23 faces (48.9% area) of pressure-outlet 9.
    39  7.5527e-01  1.2197e-02  4.4936e-03  1.6276e-16  0:00:01  961

 Reversed flow on 6 faces (6.7% area) of pressure-outlet 9.
    40  6.5789e-01  1.2539e-02  4.8384e-03  1.6530e-16  0:00:01  960

 Reversed flow on 4 faces (3.4% area) of pressure-outlet 9.
    41  8.1721e-01  1.2864e-02  5.0727e-03  1.6044e-16  0:00:01  959

 Reversed flow on 7 faces (3.9% area) of pressure-outlet 9.
    42  6.5494e-01  1.3138e-02  4.9679e-03  1.3826e-16  0:00:01  958

 Reversed flow on 5 faces (3.1% area) of pressure-outlet 9.
    43  7.0653e-01  1.3109e-02  5.0364e-03  1.4967e-16  0:00:01  957

 Reversed flow on 5 faces (4.6% area) of pressure-outlet 9.
    44  6.8016e-01  1.2808e-02  4.8825e-03  1.5765e-16  0:00:00  956

 Reversed flow on 6 faces (5.8% area) of pressure-outlet 9.

  iter  continuity  x-velocity  y-velocity      energy     time/iter
    45  8.1428e-01  1.2091e-02  4.9886e-03  1.4706e-16  0:00:00  955

 Reversed flow on 6 faces (10.2% area) of pressure-outlet 9.
    46  8.7670e-01  1.2023e-02  4.5095e-03  1.6284e-16  0:00:00  954

 Reversed flow on 6 faces (11.7% area) of pressure-outlet 9.
    47  8.8108e-01  1.1862e-02  4.1590e-03  1.6901e-16  0:00:00  953

 Reversed flow on 8 faces (13.2% area) of pressure-outlet 9.
    48  9.3413e-01  1.1951e-02  4.0029e-03  1.6622e-16  0:00:00  952

 Reversed flow on 7 faces (11.3% area) of pressure-outlet 9.
    49  9.9511e-01  1.2064e-02  3.8616e-03  1.4901e-16  0:00:00  951

 Reversed flow on 2 faces (3.3% area) of pressure-outlet 9.
    50  1.1484e+00  1.2285e-02  3.9700e-03  1.6789e-16  0:00:00  950

 Reversed flow on 9 faces (8.9% area) of pressure-outlet 9.
    51  8.4075e-01  1.4152e-02  4.6045e-03  1.7241e-16  0:03:10  949

 Reversed flow on 20 faces (25.9% area) of pressure-outlet 9.
    52  8.3483e-01  1.4553e-02  4.5799e-03  1.6451e-16  0:02:32  948

 Reversed flow on 16 faces (35.3% area) of pressure-outlet 9.
    53  7.5713e-01  1.3806e-02  4.6366e-03  1.6726e-16  0:02:01  947

 Reversed flow on 13 faces (27.1% area) of pressure-outlet 9.
    54  6.1198e-01  1.3790e-02  4.5890e-03  1.6573e-16  0:01:37  946

 Reversed flow on 10 faces (20.8% area) of pressure-outlet 9.
    55  7.3267e-01  1.3422e-02  4.7669e-03  1.7963e-16  0:01:17  945

 Reversed flow on 8 faces (9.3% area) of pressure-outlet 9.

  iter  continuity  x-velocity  y-velocity      energy     time/iter
    56  7.3992e-01  1.3585e-02  4.9367e-03  1.6815e-16  0:01:02  944

 Reversed flow on 11 faces (9.1% area) of pressure-outlet 9.
    57  7.2170e-01  1.3914e-02  4.8737e-03  1.6307e-16  0:00:49  943

 Reversed flow on 8 faces (7.1% area) of pressure-outlet 9.
    58  7.7047e-01  1.3873e-02  5.0550e-03  1.6642e-16  0:00:40  942

 Reversed flow on 8 faces (6.2% area) of pressure-outlet 9.
    59  8.6582e-01  1.4300e-02  5.2745e-03  1.7040e-16  0:00:32  941

 Reversed flow on 7 faces (7.2% area) of pressure-outlet 9.
    60  7.4873e-01  1.3963e-02  5.0558e-03  1.6097e-16  0:00:25  940

 Reversed flow on 4 faces (5.9% area) of pressure-outlet 9.
    61  9.1636e-01  1.3591e-02  5.1652e-03  1.5845e-16  0:00:20  939

 Reversed flow on 5 faces (9.1% area) of pressure-outlet 9.
    62  9.0004e-01  1.3709e-02  5.0394e-03  1.8139e-16  0:00:16  938

 Reversed flow on 7 faces (14.8% area) of pressure-outlet 9.
    63  1.0062e+00  1.3680e-02  4.7011e-03  1.8551e-16  0:00:13  937

 Reversed flow on 8 faces (15.9% area) of pressure-outlet 9.
    64  8.9016e-01  1.3872e-02  4.4515e-03  1.7459e-16  0:00:10  936

 Reversed flow on 8 faces (12.2% area) of pressure-outlet 9.
    65  8.5472e-01  1.4277e-02  4.4629e-03  1.6865e-16  0:00:08  935

 Reversed flow on 7 faces (9.9% area) of pressure-outlet 9.
    66  8.6524e-01  1.4023e-02  4.5832e-03  1.7901e-16  0:00:07  934

 Reversed flow on 1 face (0.9% area) of pressure-outlet 9.

  iter  continuity  x-velocity  y-velocity      energy     time/iter
    67  7.8433e-01  1.5398e-02  4.9357e-03  1.7267e-16  0:00:05  933
    68  7.0973e-01  1.5378e-02  5.1438e-03  1.7756e-16  0:00:04  932

 Reversed flow on 8 faces (10.0% area) of pressure-outlet 9.
    69  7.6785e-01  1.4730e-02  5.9194e-03  1.7239e-16  0:00:03  931

 Reversed flow on 16 faces (35.2% area) of pressure-outlet 9.
    70  9.4946e-01  1.4880e-02  5.7576e-03  1.6504e-16  0:00:03  930

 Reversed flow on 8 faces (13.9% area) of pressure-outlet 9.
    71  7.2294e-01  1.5664e-02  7.1822e-03  1.6222e-16  0:00:02  929

 Reversed flow on 8 faces (10.7% area) of pressure-outlet 9.
    72  7.1012e-01  1.5416e-02  6.5655e-03  1.6057e-16  0:00:02  928

 Reversed flow on 7 faces (7.5% area) of pressure-outlet 9.
    73  1.0393e+00  1.5100e-02  6.4101e-03  1.5102e-16  0:00:01  927

 Reversed flow on 7 faces (6.6% area) of pressure-outlet 9.
    74  1.2120e+00  1.6278e-02  6.5744e-03  1.6685e-16  0:00:01  926

 Reversed flow on 7 faces (5.8% area) of pressure-outlet 9.
    75  8.9477e-01  1.6782e-02  6.5028e-03  1.5755e-16  0:00:01  925

 Reversed flow on 8 faces (8.2% area) of pressure-outlet 9.
    76  8.2548e-01  1.5830e-02  6.4610e-03  1.7509e-16  0:00:01  924

 Reversed flow on 8 faces (10.7% area) of pressure-outlet 9.
    77  8.2167e-01  1.5177e-02  6.0801e-03  1.6413e-16  0:00:01  923

 Reversed flow on 8 faces (13.9% area) of pressure-outlet 9.

  iter  continuity  x-velocity  y-velocity      energy     time/iter
    78  8.5965e-01  1.3970e-02  6.0076e-03  1.7502e-16  0:00:00  922

 Reversed flow on 8 faces (18.2% area) of pressure-outlet 9.
    79  9.8152e-01  1.3311e-02  5.4175e-03  1.7285e-16  0:00:00  921

 Reversed flow on 9 faces (22.2% area) of pressure-outlet 9.
    80  1.1414e+00  1.3017e-02  4.6669e-03  1.6608e-16  0:00:00  920

 Reversed flow on 11 faces (24.4% area) of pressure-outlet 9.
    81  1.2139e+00  1.2614e-02  4.6165e-03  1.6398e-16  0:00:00  919

 Reversed flow on 10 faces (23.1% area) of pressure-outlet 9.
    82  1.4270e+00  1.2476e-02  4.4552e-03  1.5643e-16  0:00:00  918

 Reversed flow on 4 faces (11.5% area) of pressure-outlet 9.
    83  1.0705e+00  1.3106e-02  4.2017e-03  1.5564e-16  0:00:00  917

 Reversed flow on 4 faces (13.2% area) of pressure-outlet 9.
    84  9.3623e-01  1.4227e-02  4.8374e-03  1.6628e-16  0:00:00  916

 Reversed flow on 7 faces (22.1% area) of pressure-outlet 9.
    85  6.8811e-01  1.7077e-02  4.8030e-03  1.6434e-16  0:00:00  915

 Reversed flow on 9 faces (22.2% area) of pressure-outlet 9.
    86  7.6569e-01  1.5999e-02  4.7381e-03  1.5984e-16  0:00:00  914

 Reversed flow on 10 faces (17.9% area) of pressure-outlet 9.
    87  7.3600e-01  1.4327e-02  4.5420e-03  1.7404e-16  0:00:00  913

 Reversed flow on 9 faces (13.0% area) of pressure-outlet 9.
    88  8.6985e-01  1.3089e-02  4.7830e-03  1.7219e-16  0:00:00  912

 Reversed flow on 7 faces (7.5% area) of pressure-outlet 9.

  iter  continuity  x-velocity  y-velocity      energy     time/iter
    89  9.0331e-01  1.3625e-02  4.8830e-03  1.6765e-16  0:00:00  911

 Reversed flow on 7 faces (5.8% area) of pressure-outlet 9.
    90  8.7827e-01  1.3440e-02  4.9333e-03  1.6202e-16  0:00:00  910

 Reversed flow on 7 faces (5.0% area) of pressure-outlet 9.
    91  1.0428e+00  1.3420e-02  4.9846e-03  1.6613e-16  0:00:00  909

 Reversed flow on 4 faces (2.6% area) of pressure-outlet 9.
    92  8.1935e-01  1.4371e-02  5.0469e-03  1.7194e-16  0:00:00  908

 Reversed flow on 1 face (0.9% area) of pressure-outlet 9.
    93  1.1720e+00  1.3220e-02  4.7991e-03  1.6127e-16  0:00:00  907
    94  1.1613e+00  1.3284e-02  4.9623e-03  1.5875e-16  0:00:00  906

 Reversed flow on 15 faces (38.4% area) of pressure-outlet 9.
    95  9.6190e-01  1.2745e-02  4.5577e-03  1.6336e-16  0:03:01  905

 Reversed flow on 8 faces (15.9% area) of pressure-outlet 9.
    96  1.0388e+00  1.2601e-02  4.2486e-03  1.5770e-16  0:02:25  904

 Reversed flow on 8 faces (12.2% area) of pressure-outlet 9.
    97  1.1407e+00  1.3227e-02  4.1617e-03  1.6802e-16  0:01:56  903

 Reversed flow on 8 faces (10.7% area) of pressure-outlet 9.
    98  1.0994e+00  1.3425e-02  4.3311e-03  1.5857e-16  0:01:32  902

 Reversed flow on 5 faces (5.3% area) of pressure-outlet 9.
    99  9.9140e-01  1.4743e-02  4.7234e-03  1.6685e-16  0:01:14  901

 Reversed flow on 1 face (0.8% area) of pressure-outlet 9.

  iter  continuity  x-velocity  y-velocity      energy     time/iter
   100  8.5054e-01  1.4979e-02  5.2787e-03  1.6840e-16  0:00:59  900

 Reversed flow on 8 faces (19.1% area) of pressure-outlet 9.
   101  8.3306e-01  1.5497e-02  6.0535e-03  1.5789e-16  0:00:47  899

 Reversed flow on 19 faces (29.1% area) of pressure-outlet 9.
   102  8.9679e-01  1.5573e-02  6.0536e-03  1.7505e-16  0:00:38  898

 Reversed flow on 16 faces (40.4% area) of pressure-outlet 9.
   103  8.4061e-01  1.6324e-02  6.5023e-03  1.6872e-16  0:00:30  897

 Reversed flow on 9 faces (12.9% area) of pressure-outlet 9.
   104  8.6703e-01  1.6589e-02  6.4870e-03  1.7142e-16  0:00:24  896

 Reversed flow on 7 faces (9.9% area) of pressure-outlet 9.
   105  7.9272e-01  1.7162e-02  6.7780e-03  1.5152e-16  0:00:19  895

 Reversed flow on 7 faces (7.5% area) of pressure-outlet 9.
   106  6.7043e-01  1.5937e-02  6.6381e-03  1.5624e-16  0:00:15  894

 Reversed flow on 7 faces (6.6% area) of pressure-outlet 9.
   107  1.0388e+00  1.5093e-02  6.2641e-03  1.6340e-16  0:00:12  893

 Reversed flow on 7 faces (5.8% area) of pressure-outlet 9.
   108  8.0520e-01  1.4856e-02  6.4212e-03  1.7066e-16  0:00:10  892

 Reversed flow on 9 faces (8.7% area) of pressure-outlet 9.
   109  7.1830e-01  1.4490e-02  5.8807e-03  1.7255e-16  0:00:08  891

 Reversed flow on 8 faces (10.7% area) of pressure-outlet 9.
   110  8.1886e-01  1.3267e-02  5.5089e-03  1.6122e-16  0:00:06  890

 Reversed flow on 6 faces (10.2% area) of pressure-outlet 9.

  iter  continuity  x-velocity  y-velocity      energy     time/iter
   111  1.0430e+00  1.2563e-02  5.2926e-03  1.5621e-16  0:00:05  889

 Reversed flow on 7 faces (14.8% area) of pressure-outlet 9.
   112  8.4566e-01  1.1969e-02  4.5097e-03  1.6811e-16  0:00:04  888

 Reversed flow on 7 faces (16.9% area) of pressure-outlet 9.
   113  1.0305e+00  1.1508e-02  4.1009e-03  1.6919e-16  0:00:03  887

 Reversed flow on 10 faces (20.5% area) of pressure-outlet 9.
   114  1.0591e+00  1.1598e-02  3.7895e-03  1.7435e-16  0:00:03  886

 Reversed flow on 9 faces (17.0% area) of pressure-outlet 9.
   115  1.2087e+00  1.1627e-02  3.6693e-03  1.7885e-16  0:00:02  885

 Reversed flow on 3 faces (7.1% area) of pressure-outlet 9.
   116  8.7393e-01  1.2139e-02  3.9710e-03  1.7725e-16  0:00:02  884

 Reversed flow on 3 faces (9.2% area) of pressure-outlet 9.
   117  6.8069e-01  1.3284e-02  4.2331e-03  1.8287e-16  0:00:01  883

 Reversed flow on 6 faces (15.3% area) of pressure-outlet 9.
   118  5.9576e-01  1.3221e-02  4.1500e-03  1.8939e-16  0:00:01  882

 Reversed flow on 8 faces (18.2% area) of pressure-outlet 9.
   119  5.1540e-01  1.2840e-02  4.1469e-03  1.7277e-16  0:00:01  881

 Reversed flow on 9 faces (14.9% area) of pressure-outlet 9.
   120  6.5826e-01  1.2411e-02  4.2853e-03  1.8711e-16  0:00:01  880

 Reversed flow on 8 faces (10.7% area) of pressure-outlet 9.
   121  8.7714e-01  1.2441e-02  4.9739e-03  1.9524e-16  0:00:01  879

 Reversed flow on 8 faces (9.3% area) of pressure-outlet 9.

  iter  continuity  x-velocity  y-velocity      energy     time/iter
   122  6.4427e-01  1.2838e-02  4.9837e-03  1.8769e-16  0:00:00  878

 Reversed flow on 7 faces (6.6% area) of pressure-outlet 9.
   123  7.0533e-01  1.1612e-02  4.7480e-03  1.9035e-16  0:00:00  877

 Reversed flow on 7 faces (5.0% area) of pressure-outlet 9.
   124  8.5930e-01  1.1820e-02  4.6797e-03  1.9239e-16  0:00:00  876

 Reversed flow on 5 faces (3.5% area) of pressure-outlet 9.
   125  6.3358e-01  1.2056e-02  4.7444e-03  1.9557e-16  0:00:00  875

 Reversed flow on 5 faces (5.3% area) of pressure-outlet 9.
   126  7.5916e-01  1.1219e-02  4.4414e-03  2.1453e-16  0:00:00  874

 Reversed flow on 6 faces (9.0% area) of pressure-outlet 9.
   127  7.6989e-01  1.1079e-02  4.1529e-03  2.0173e-16  0:00:00  873

 Reversed flow on 5 faces (9.1% area) of pressure-outlet 9.
   128  7.1676e-01  1.0657e-02  3.7559e-03  2.1370e-16  0:00:00  872

 Reversed flow on 6 faces (11.7% area) of pressure-outlet 9.
   129  9.6267e-01  1.0236e-02  3.6243e-03  2.1595e-16  0:00:00  871

 Reversed flow on 3 faces (6.1% area) of pressure-outlet 9.
   130  8.4660e-01  1.0504e-02  3.3488e-03  2.1891e-16  0:00:00  870
   131  8.1310e-01  1.1124e-02  3.6071e-03  2.2688e-16  0:00:00  869

 Reversed flow on 1 face (1.4% area) of pressure-outlet 9.
   132  7.8274e-01  1.2019e-02  4.8439e-03  2.3342e-16  0:00:00  868

 Reversed flow on 23 faces (36.2% area) of pressure-outlet 9.

  iter  continuity  x-velocity  y-velocity      energy     time/iter
   133  7.4889e-01  1.3166e-02  4.4305e-03  2.3382e-16  0:00:00  867

 Reversed flow on 15 faces (34.9% area) of pressure-outlet 9.
   134  6.2554e-01  1.3007e-02  4.5835e-03  2.3930e-16  0:00:00  866

 Reversed flow on 19 faces (28.7% area) of pressure-outlet 9.
   135  6.1171e-01  1.2593e-02  4.2413e-03  2.3707e-16  0:02:53  865

 Reversed flow on 17 faces (45.5% area) of pressure-outlet 9.
   136  1.2149e+00  1.2117e-02  4.4400e-03  2.4367e-16  0:02:18  864

 Reversed flow on 5 faces (6.1% area) of pressure-outlet 9.
   137  7.7202e-01  1.3418e-02  5.0947e-03  2.4566e-16  0:01:50  863

 Reversed flow on 5 faces (5.3% area) of pressure-outlet 9.
   138  7.1858e-01  1.2014e-02  4.6991e-03  2.6831e-16  0:01:28  862

 Reversed flow on 5 faces (4.6% area) of pressure-outlet 9.
   139  8.8892e-01  1.1135e-02  4.1913e-03  2.8542e-16  0:01:11  861

 Reversed flow on 5 faces (3.0% area) of pressure-outlet 9.
   140  9.6102e-01  1.1166e-02  4.4136e-03  2.7099e-16  0:00:56  860

 Reversed flow on 3 faces (2.4% area) of pressure-outlet 9.
   141  8.5861e-01  1.1077e-02  3.8050e-03  2.7278e-16  0:00:45  859

 Reversed flow on 6 faces (6.9% area) of pressure-outlet 9.
   142  9.3896e-01  1.0213e-02  3.5931e-03  3.0645e-16  0:00:36  858

 Reversed flow on 8 faces (10.2% area) of pressure-outlet 9.
   143  8.7696e-01  1.0203e-02  3.7385e-03  3.4767e-16  0:00:29  857

 Reversed flow on 7 faces (11.3% area) of pressure-outlet 9.

  iter  continuity  x-velocity  y-velocity      energy     time/iter
   144  8.6494e-01  1.0201e-02  3.5315e-03  3.5971e-16  0:00:23  856

 Reversed flow on 8 faces (10.7% area) of pressure-outlet 9.
   145  7.1805e-01  1.0187e-02  3.1721e-03  3.7951e-16  0:00:18  855

 Reversed flow on 7 faces (7.5% area) of pressure-outlet 9.
   146  7.6090e-01  1.0844e-02  3.5510e-03  3.8485e-16  0:00:15  854

 Reversed flow on 6 faces (5.2% area) of pressure-outlet 9.
   147  6.5404e-01  1.1516e-02  3.5220e-03  3.9932e-16  0:00:12  853

 Reversed flow on 5 faces (4.4% area) of pressure-outlet 9.
   148  6.0098e-01  1.1929e-02  3.9165e-03  4.2639e-16  0:00:09  852

 Reversed flow on 3 faces (4.7% area) of pressure-outlet 9.
   149  6.8651e-01  1.2161e-02  4.2510e-03  4.4992e-16  0:00:07  851

 Reversed flow on 5 faces (9.1% area) of pressure-outlet 9.
   150  8.2293e-01  1.2060e-02  4.7430e-03  4.8252e-16  0:00:06  850

 Reversed flow on 6 faces (11.7% area) of pressure-outlet 9.
   151  6.4284e-01  1.2000e-02  5.0988e-03  4.8637e-16  0:00:05  849

 Reversed flow on 7 faces (12.9% area) of pressure-outlet 9.
   152  5.1912e-01  1.1947e-02  4.8517e-03  5.7305e-16  0:00:04  848

 Reversed flow on 8 faces (12.2% area) of pressure-outlet 9.
   153  5.9295e-01  1.1563e-02  4.8338e-03  6.2881e-16  0:00:03  847

 Reversed flow on 7 faces (8.6% area) of pressure-outlet 9.
   154  6.6272e-01  1.1672e-02  4.7385e-03  6.6540e-16  0:00:02  846

 Reversed flow on 7 faces (7.5% area) of pressure-outlet 9.

  iter  continuity  x-velocity  y-velocity      energy     time/iter
   155  7.1002e-01  1.1945e-02  4.6118e-03  7.0852e-16  0:00:02  845

 Reversed flow on 3 faces (2.4% area) of pressure-outlet 9.
   156  6.4044e-01  1.2433e-02  4.7145e-03  7.9980e-16  0:00:02  844
   157  6.4396e-01  1.2681e-02  4.7417e-03  8.6828e-16  0:00:01  843

 Reversed flow on 8 faces (13.7% area) of pressure-outlet 9.
   158  6.9091e-01  1.2396e-02  4.8080e-03  9.7990e-16  0:00:01  842

 Reversed flow on 9 faces (12.6% area) of pressure-outlet 9.
   159  8.3515e-01  1.2343e-02  4.8089e-03  1.0589e-15  0:00:01  841

 Reversed flow on 12 faces (22.5% area) of pressure-outlet 9.
   160  8.0438e-01  1.2803e-02  4.4743e-03  1.1530e-15  0:00:01  840

 Reversed flow on 6 faces (12.8% area) of pressure-outlet 9.
   161  8.2663e-01  1.2366e-02  4.0275e-03  1.2773e-15  0:00:01  839
   162  8.2475e-01  1.2082e-02  4.0422e-03  1.3790e-15  0:00:00  838

 Reversed flow on 1 face (1.4% area) of pressure-outlet 9.
   163  9.3987e-01  1.2842e-02  4.2870e-03  1.4756e-15  0:00:00  837

 Reversed flow on 12 faces (11.9% area) of pressure-outlet 9.
   164  7.4342e-01  1.3291e-02  4.3802e-03  1.5645e-15  0:00:00  836

 Reversed flow on 18 faces (30.9% area) of pressure-outlet 9.
   165  7.5787e-01  1.3338e-02  5.0386e-03  1.6111e-15  0:00:00  835

 Reversed flow on 14 faces (35.9% area) of pressure-outlet 9.

  iter  continuity  x-velocity  y-velocity      energy     time/iter
   166  6.9881e-01  1.3382e-02  4.9150e-03  1.7296e-15  0:00:00  834

 Reversed flow on 26 faces (32.1% area) of pressure-outlet 9.
   167  7.2378e-01  1.3201e-02  5.1321e-03  1.7849e-15  0:00:00  833

 Reversed flow on 15 faces (41.4% area) of pressure-outlet 9.
   168  6.8711e-01  1.3755e-02  5.6683e-03  1.8796e-15  0:00:00  832

 Reversed flow on 6 faces (6.2% area) of pressure-outlet 9.
   169  6.8556e-01  1.3679e-02  5.4579e-03  1.9965e-15  0:00:00  831

 Reversed flow on 8 faces (5.2% area) of pressure-outlet 9.
   170  6.1158e-01  1.3205e-02  5.5215e-03  2.1356e-15  0:00:00  830

 Reversed flow on 4 faces (3.4% area) of pressure-outlet 9.
   171  6.6548e-01  1.3357e-02  5.6128e-03  2.2690e-15  0:00:00  829

 Reversed flow on 5 faces (4.4% area) of pressure-outlet 9.
   172  6.6855e-01  1.3785e-02  5.4214e-03  2.4581e-15  0:00:00  828

 Reversed flow on 11 faces (8.7% area) of pressure-outlet 9.
   173  6.5064e-01  1.3457e-02  5.4624e-03  2.6819e-15  0:00:00  827

 Reversed flow on 11 faces (16.1% area) of pressure-outlet 9.
   174  8.8348e-01  1.3471e-02  5.3516e-03  2.8679e-15  0:00:00  826

 Reversed flow on 19 faces (27.5% area) of pressure-outlet 9.
   175  9.7122e-01  1.3312e-02  5.1978e-03  3.0654e-15  0:02:45  825

 Reversed flow on 23 faces (34.0% area) of pressure-outlet 9.
   176  8.9586e-01  1.3532e-02  4.8081e-03  3.2449e-15  0:02:12  824

 Reversed flow on 9 faces (12.8% area) of pressure-outlet 9.

  iter  continuity  x-velocity  y-velocity      energy     time/iter
   177  9.4709e-01  1.3608e-02  4.6161e-03  3.3658e-15  0:01:45  823

 Reversed flow on 6 faces (10.2% area) of pressure-outlet 9.
   178  9.3029e-01  1.3849e-02  4.8475e-03  3.5678e-15  0:01:24  822

 Reversed flow on 4 faces (2.1% area) of pressure-outlet 9.
   179  9.6506e-01  1.3641e-02  4.8009e-03  3.6658e-15  0:01:07  821

 Reversed flow on 12 faces (13.6% area) of pressure-outlet 9.
   180  7.4078e-01  1.4349e-02  4.7111e-03  3.8571e-15  0:00:54  820

 Reversed flow on 11 faces (17.5% area) of pressure-outlet 9.
   181  7.1888e-01  1.3844e-02  4.7892e-03  4.0054e-15  0:00:43  819

 Reversed flow on 19 faces (34.2% area) of pressure-outlet 9.
   182  7.3499e-01  1.3461e-02  5.1422e-03  4.1794e-15  0:00:34  818

 Reversed flow on 21 faces (20.8% area) of pressure-outlet 9.
   183  6.9374e-01  1.3669e-02  5.0999e-03  4.3437e-15  0:00:27  817

 Reversed flow on 20 faces (49.0% area) of pressure-outlet 9.
   184  6.6602e-01  1.3784e-02  5.5635e-03  4.4219e-15  0:00:22  816

 Reversed flow on 7 faces (8.6% area) of pressure-outlet 9.
   185  8.2072e-01  1.3650e-02  5.4312e-03  4.5639e-15  0:00:18  815

 Reversed flow on 8 faces (6.6% area) of pressure-outlet 9.
   186  6.8997e-01  1.4360e-02  5.4158e-03  4.7164e-15  0:00:14  814

 Reversed flow on 11 faces (7.0% area) of pressure-outlet 9.
   187  7.0614e-01  1.4139e-02  5.3526e-03  4.7864e-15  0:00:11  813

 Reversed flow on 5 faces (3.5% area) of pressure-outlet 9.

  iter  continuity  x-velocity  y-velocity      energy     time/iter
   188  7.6283e-01  1.4564e-02  5.4335e-03  5.0077e-15  0:00:09  812
   189  6.8712e-01  1.4212e-02  5.5127e-03  5.2172e-15  0:00:07  811

 Reversed flow on 19 faces (24.3% area) of pressure-outlet 9.
   190  1.0372e+00  1.4263e-02  5.5370e-03  5.4207e-15  0:00:06  810

 Reversed flow on 13 faces (18.3% area) of pressure-outlet 9.
   191  9.8156e-01  1.4466e-02  5.4415e-03  5.5977e-15  0:00:05  809

 Reversed flow on 30 faces (56.1% area) of pressure-outlet 9.
   192  1.0236e+00  1.4554e-02  5.1445e-03  5.7892e-15  0:00:04  808

 Reversed flow on 10 faces (13.8% area) of pressure-outlet 9.
   193  9.4735e-01  1.4875e-02  5.0358e-03  5.8323e-15  0:00:03  807

 Reversed flow on 7 faces (11.3% area) of pressure-outlet 9.
   194  8.9121e-01  1.4356e-02  4.7984e-03  6.1996e-15  0:00:02  806

 Reversed flow on 5 faces (6.1% area) of pressure-outlet 9.
   195  8.9379e-01  1.3901e-02  4.9144e-03  6.3459e-15  0:00:02  805

 Reversed flow on 4 faces (3.6% area) of pressure-outlet 9.
   196  8.0103e-01  1.4788e-02  4.8174e-03  6.5181e-15  0:00:01  804

 Reversed flow on 9 faces (13.6% area) of pressure-outlet 9.
   197  8.2712e-01  1.4524e-02  5.0671e-03  6.6857e-15  0:00:01  803

 Reversed flow on 19 faces (39.0% area) of pressure-outlet 9.
   198  8.0374e-01  1.4790e-02  5.3446e-03  6.8109e-15  0:00:01  802

 Reversed flow on 19 faces (28.7% area) of pressure-outlet 9.

  iter  continuity  x-velocity  y-velocity      energy     time/iter
   199  7.7046e-01  1.4913e-02  5.5856e-03  6.8769e-15  0:00:01  801

 Reversed flow on 28 faces (53.8% area) of pressure-outlet 9.
   200  7.7360e-01  1.5530e-02  6.2130e-03  6.9267e-15  0:00:01  800

 Reversed flow on 7 faces (9.9% area) of pressure-outlet 9.
   201  7.2599e-01  1.5472e-02  5.8280e-03  7.1118e-15  0:00:00  799

 Reversed flow on 9 faces (8.2% area) of pressure-outlet 9.
   202  7.4226e-01  1.5244e-02  5.7662e-03  7.2352e-15  0:00:00  798

 Reversed flow on 7 faces (6.6% area) of pressure-outlet 9.
   203  1.1249e+00  1.5481e-02  5.9461e-03  7.4090e-15  0:00:00  797

 Reversed flow on 7 faces (5.8% area) of pressure-outlet 9.
   204  1.0358e+00  1.6806e-02  5.8267e-03  7.5965e-15  0:00:00  796

 Reversed flow on 9 faces (8.5% area) of pressure-outlet 9.
   205  9.0057e-01  1.6238e-02  5.8147e-03  7.9893e-15  0:00:00  795

 Reversed flow on 8 faces (10.7% area) of pressure-outlet 9.
   206  1.0615e+00  1.5769e-02  5.6465e-03  8.2570e-15  0:00:00  794

 Reversed flow on 7 faces (12.9% area) of pressure-outlet 9.
   207  9.2654e-01  1.4801e-02  5.6389e-03  8.7286e-15  0:00:00  793

 Reversed flow on 9 faces (19.4% area) of pressure-outlet 9.
   208  1.1744e+00  1.3935e-02  5.3536e-03  9.0673e-15  0:00:00  792

 Reversed flow on 10 faces (20.5% area) of pressure-outlet 9.
   209  1.1991e+00  1.4028e-02  4.8887e-03  9.3900e-15  0:00:00  791

 Reversed flow on 11 faces (21.4% area) of pressure-outlet 9.

  iter  continuity  x-velocity  y-velocity      energy     time/iter
   210  1.1942e+00  1.3836e-02  4.6611e-03  9.9624e-15  0:00:00  790

 Reversed flow on 11 faces (18.7% area) of pressure-outlet 9.
   211  1.6456e+00  1.3547e-02  4.6891e-03  1.0137e-14  0:00:00  789

 Reversed flow on 7 faces (11.6% area) of pressure-outlet 9.
   212  1.2073e+00  1.4301e-02  4.6906e-03  1.0201e-14  0:00:00  788

 Reversed flow on 3 faces (9.2% area) of pressure-outlet 9.
   213  1.0497e+00  1.4832e-02  5.2644e-03  1.0434e-14  0:00:00  787

 Reversed flow on 3 faces (9.2% area) of pressure-outlet 9.
   214  8.8689e-01  1.5447e-02  5.0275e-03  1.0547e-14  0:02:37  786

 Reversed flow on 9 faces (19.4% area) of pressure-outlet 9.
   215  8.4495e-01  1.5514e-02  5.1628e-03  1.0764e-14  0:02:06  785

 Reversed flow on 9 faces (17.0% area) of pressure-outlet 9.
   216  7.3277e-01  1.5613e-02  5.0431e-03  1.1172e-14  0:01:40  784

 Reversed flow on 9 faces (13.0% area) of pressure-outlet 9.
   217  8.0090e-01  1.5003e-02  5.2056e-03  1.1496e-14  0:01:20  783

 Reversed flow on 9 faces (9.9% area) of pressure-outlet 9.
   218  1.4003e+00  1.4943e-02  5.4681e-03  1.1735e-14  0:01:04  782

 Reversed flow on 9 faces (8.7% area) of pressure-outlet 9.
   219  9.4411e-01  1.6055e-02  5.8970e-03  1.2470e-14  0:00:51  781

 Reversed flow on 10 faces (9.2% area) of pressure-outlet 9.
   220  1.1056e+00  1.4957e-02  5.9128e-03  1.2680e-14  0:00:41  780

 Reversed flow on 9 faces (6.6% area) of pressure-outlet 9.

  iter  continuity  x-velocity  y-velocity      energy     time/iter
   221  8.7580e-01  1.5941e-02  5.4415e-03  1.3843e-14  0:00:33  779

 Reversed flow on 10 faces (12.0% area) of pressure-outlet 9.
   222  8.1680e-01  1.4617e-02  5.3953e-03  1.3877e-14  0:00:26  778

 Reversed flow on 7 faces (12.9% area) of pressure-outlet 9.
   223  1.7642e+00  1.3235e-02  5.2138e-03  1.3768e-14  0:00:21  777

 Reversed flow on 8 faces (18.2% area) of pressure-outlet 9.
   224  1.0627e+00  1.3716e-02  5.1827e-03  1.4274e-14  0:00:17  776

 Reversed flow on 10 faces (23.4% area) of pressure-outlet 9.
   225  1.0922e+00  1.2793e-02  4.2839e-03  1.6754e-14  0:00:13  775

 Reversed flow on 10 faces (20.5% area) of pressure-outlet 9.
   226  9.8931e-01  1.2364e-02  3.7713e-03  1.6509e-14  0:00:11  774

 Reversed flow on 9 faces (14.9% area) of pressure-outlet 9.
   227  1.1455e+00  1.2430e-02  3.9965e-03  1.5585e-14  0:00:09  773

 Reversed flow on 9 faces (13.0% area) of pressure-outlet 9.
   228  1.0235e+00  1.2861e-02  4.3309e-03  1.3726e-14  0:00:07  772

 Reversed flow on 9 faces (13.3% area) of pressure-outlet 9.
   229  8.2094e-01  1.3985e-02  4.1430e-03  1.3528e-14  0:00:05  771

 Reversed flow on 6 faces (11.7% area) of pressure-outlet 9.
   230  8.0631e-01  1.3888e-02  4.4686e-03  1.2863e-14  0:00:04  770

 Reversed flow on 6 faces (13.4% area) of pressure-outlet 9.
   231  7.8354e-01  1.3738e-02  4.7724e-03  1.2757e-14  0:00:03  769

 Reversed flow on 8 faces (15.9% area) of pressure-outlet 9.

  iter  continuity  x-velocity  y-velocity      energy     time/iter
   232  7.8539e-01  1.3711e-02  5.3309e-03  1.2880e-14  0:00:03  768

 Reversed flow on 10 faces (17.9% area) of pressure-outlet 9.
   233  6.9619e-01  1.4344e-02  5.4696e-03  1.4019e-14  0:00:02  767

 Reversed flow on 10 faces (13.7% area) of pressure-outlet 9.
   234  6.4642e-01  1.3279e-02  5.3287e-03  1.3974e-14  0:00:02  766

 Reversed flow on 10 faces (12.0% area) of pressure-outlet 9.
   235  6.5583e-01  1.2840e-02  5.4055e-03  1.3516e-14  0:00:01  765

 Reversed flow on 8 faces (7.1% area) of pressure-outlet 9.
   236  8.4240e-01  1.2412e-02  5.5364e-03  1.3460e-14  0:00:01  764

 Reversed flow on 7 faces (5.0% area) of pressure-outlet 9.
   237  7.9264e-01  1.2637e-02  5.3894e-03  1.2529e-14  0:00:01  763

 Reversed flow on 8 faces (7.1% area) of pressure-outlet 9.
   238  6.8288e-01  1.2708e-02  5.0470e-03  1.3862e-14  0:00:01  762

 Reversed flow on 8 faces (9.3% area) of pressure-outlet 9.
   239  6.7877e-01  1.1771e-02  4.4082e-03  1.3882e-14  0:00:01  761

 Reversed flow on 7 faces (11.3% area) of pressure-outlet 9.
   240  6.8572e-01  1.0997e-02  4.3790e-03  1.3688e-14  0:00:00  760

 Reversed flow on 6 faces (11.7% area) of pressure-outlet 9.
   241  6.7826e-01  1.0492e-02  3.7810e-03  1.5228e-14  0:00:00  759

 Reversed flow on 6 faces (13.4% area) of pressure-outlet 9.
   242  7.7556e-01  1.0039e-02  3.4310e-03  1.5020e-14  0:00:00  758

 Reversed flow on 5 faces (11.8% area) of pressure-outlet 9.

  iter  continuity  x-velocity  y-velocity      energy     time/iter
   243  8.2671e-01  1.0087e-02  3.3917e-03  1.3487e-14  0:00:00  757
   244  8.3700e-01  1.0522e-02  3.3448e-03  1.2871e-14  0:00:00  756
   245  6.5905e-01  1.1033e-02  3.3557e-03  1.3112e-14  0:00:00  755

 Reversed flow on 6 faces (13.3% area) of pressure-outlet 9.
   246  6.6767e-01  1.1877e-02  4.3214e-03  1.2335e-14  0:00:00  754

 Reversed flow on 18 faces (35.2% area) of pressure-outlet 9.
   247  5.5294e-01  1.1799e-02  4.2127e-03  1.3322e-14  0:00:00  753

 Reversed flow on 8 faces (11.9% area) of pressure-outlet 9.
   248  5.7527e-01  1.1510e-02  4.1617e-03  1.2764e-14  0:00:00  752

 Reversed flow on 9 faces (15.0% area) of pressure-outlet 9.
   249  5.3602e-01  1.1328e-02  4.2480e-03  1.3697e-14  0:00:00  751

 Reversed flow on 5 faces (6.1% area) of pressure-outlet 9.
   250  5.8964e-01  1.1124e-02  4.5484e-03  1.2571e-14  0:00:00  750

 Reversed flow on 2 faces (1.2% area) of pressure-outlet 9.
   251  5.1035e-01  1.1205e-02  4.7647e-03  1.3280e-14  0:00:00  749

 Reversed flow on 2 faces (0.6% area) of pressure-outlet 9.
   252  5.3495e-01  1.1333e-02  4.7595e-03  1.2307e-14  0:00:00  748

 Reversed flow on 6 faces (7.6% area) of pressure-outlet 9.
   253  5.5472e-01  1.1606e-02  4.6845e-03  1.3351e-14  0:00:00  747

 Reversed flow on 16 faces (18.3% area) of pressure-outlet 9.

  iter  continuity  x-velocity  y-velocity      energy     time/iter
   254  5.7424e-01  1.1289e-02  4.8373e-03  1.2693e-14  0:02:29  746

 Reversed flow on 14 faces (31.1% area) of pressure-outlet 9.
   255  6.8258e-01  1.1323e-02  4.6966e-03  1.3910e-14  0:01:59  745

 Reversed flow on 15 faces (21.1% area) of pressure-outlet 9.
   256  6.0943e-01  1.1228e-02  4.3341e-03  1.3099e-14  0:01:35  744

 Reversed flow on 10 faces (28.4% area) of pressure-outlet 9.
   257  6.9357e-01  1.1195e-02  4.1140e-03  1.3801e-14  0:01:16  743

 Reversed flow on 23 faces (28.0% area) of pressure-outlet 9.
   258  7.4733e-01  1.1644e-02  3.9130e-03  1.3152e-14  0:01:01  742

 Reversed flow on 2 faces (0.6% area) of pressure-outlet 9.
   259  7.4672e-01  1.1546e-02  3.7909e-03  1.4086e-14  0:00:49  741

 Reversed flow on 8 faces (14.9% area) of pressure-outlet 9.
   260  7.2392e-01  1.1638e-02  4.0266e-03  1.3920e-14  0:00:39  740

 Reversed flow on 27 faces (37.9% area) of pressure-outlet 9.
   261  6.9923e-01  1.2364e-02  4.1754e-03  1.3873e-14  0:00:31  739

 Reversed flow on 28 faces (49.7% area) of pressure-outlet 9.
   262  6.6395e-01  1.2304e-02  4.3037e-03  1.3794e-14  0:00:25  738

 Reversed flow on 12 faces (29.3% area) of pressure-outlet 9.
   263  6.6210e-01  1.2242e-02  4.7628e-03  1.2976e-14  0:00:20  737

 Reversed flow on 32 faces (46.4% area) of pressure-outlet 9.
   264  6.4135e-01  1.1968e-02  4.2926e-03  1.4134e-14  0:00:16  736

 Reversed flow on 8 faces (14.2% area) of pressure-outlet 9.

  iter  continuity  x-velocity  y-velocity      energy     time/iter
   265  6.8911e-01  1.1777e-02  4.1856e-03  1.3751e-14  0:00:13  735

 Reversed flow on 10 faces (26.8% area) of pressure-outlet 9.
   266  5.8342e-01  1.2108e-02  4.5110e-03  1.2669e-14  0:00:10  734

 Reversed flow on 6 faces (3.2% area) of pressure-outlet 9.
   267  6.4147e-01  1.2150e-02  4.5361e-03  1.2410e-14  0:00:08  733

 Reversed flow on 1 face (0.3% area) of pressure-outlet 9.
   268  6.6820e-01  1.2143e-02  4.5549e-03  1.3116e-14  0:00:06  732

 Reversed flow on 19 faces (20.6% area) of pressure-outlet 9.
   269  7.3618e-01  1.2732e-02  4.8931e-03  1.3417e-14  0:00:05  731

 Reversed flow on 17 faces (23.1% area) of pressure-outlet 9.
   270  7.2530e-01  1.2789e-02  4.8657e-03  1.3742e-14  0:00:04  730

 Reversed flow on 20 faces (34.7% area) of pressure-outlet 9.
   271  6.5003e-01  1.2282e-02  4.7853e-03  1.3871e-14  0:00:03  729

 Reversed flow on 16 faces (26.2% area) of pressure-outlet 9.
   272  7.0902e-01  1.1752e-02  4.5245e-03  1.3331e-14  0:00:03  728

 Reversed flow on 20 faces (27.5% area) of pressure-outlet 9.
   273  7.9945e-01  1.1513e-02  4.1405e-03  1.4338e-14  0:00:02  727

 Reversed flow on 13 faces (13.2% area) of pressure-outlet 9.
   274  8.4766e-01  1.1181e-02  3.8896e-03  1.3354e-14  0:00:02  726

 Reversed flow on 10 faces (7.6% area) of pressure-outlet 9.
   275  8.1990e-01  1.1309e-02  3.8225e-03  1.3047e-14  0:00:01  725

 Reversed flow on 9 faces (7.0% area) of pressure-outlet 9.

  iter  continuity  x-velocity  y-velocity      energy     time/iter
   276  9.0692e-01  1.1680e-02  3.7286e-03  1.3737e-14  0:00:01  724

 Reversed flow on 21 faces (36.1% area) of pressure-outlet 9.
   277  7.7272e-01  1.2253e-02  4.0273e-03  1.3626e-14  0:00:01  723

 Reversed flow on 24 faces (35.3% area) of pressure-outlet 9.
   278  7.6905e-01  1.2726e-02  4.1957e-03  1.3958e-14  0:00:01  722

 Reversed flow on 18 faces (35.0% area) of pressure-outlet 9.
   279  7.0465e-01  1.2821e-02  4.2977e-03  1.2847e-14  0:00:01  721

 Reversed flow on 30 faces (45.1% area) of pressure-outlet 9.
   280  6.7780e-01  1.2837e-02  4.4323e-03  1.3587e-14  0:00:00  720

 Reversed flow on 11 faces (13.3% area) of pressure-outlet 9.
   281  6.5230e-01  1.3014e-02  4.6176e-03  1.3839e-14  0:00:00  719

 Reversed flow on 22 faces (19.1% area) of pressure-outlet 9.
   282  7.3580e-01  1.3027e-02  4.6816e-03  1.3948e-14  0:00:00  718

 Reversed flow on 9 faces (5.0% area) of pressure-outlet 9.
   283  8.4108e-01  1.3234e-02  5.0344e-03  1.3549e-14  0:00:00  717

 Reversed flow on 9 faces (6.0% area) of pressure-outlet 9.
   284  7.4730e-01  1.4365e-02  5.2280e-03  1.2600e-14  0:00:00  716

 Reversed flow on 11 faces (7.2% area) of pressure-outlet 9.
   285  7.0830e-01  1.3841e-02  5.0367e-03  1.3382e-14  0:00:00  715

 Reversed flow on 11 faces (10.8% area) of pressure-outlet 9.
   286  7.7575e-01  1.3360e-02  5.4018e-03  1.4015e-14  0:00:00  714

 Reversed flow on 11 faces (11.1% area) of pressure-outlet 9.

  iter  continuity  x-velocity  y-velocity      energy     time/iter
   287  8.6101e-01  1.3025e-02  4.9551e-03  1.3616e-14  0:00:00  713

 Reversed flow on 12 faces (16.2% area) of pressure-outlet 9.
   288  9.4177e-01  1.3040e-02  4.8320e-03  1.4695e-14  0:00:00  712

 Reversed flow on 11 faces (17.6% area) of pressure-outlet 9.
   289  9.8166e-01  1.3553e-02  4.6634e-03  1.5042e-14  0:00:00  711

 Reversed flow on 13 faces (16.1% area) of pressure-outlet 9.
   290  1.0678e+00  1.3837e-02  4.3949e-03  1.4139e-14  0:00:00  710

 Reversed flow on 8 faces (10.7% area) of pressure-outlet 9.
   291  1.0040e+00  1.3796e-02  4.3728e-03  1.3432e-14  0:00:00  709

 Reversed flow on 7 faces (9.7% area) of pressure-outlet 9.
   292  8.8685e-01  1.4132e-02  4.7227e-03  1.3565e-14  0:00:00  708

 Reversed flow on 4 faces (5.0% area) of pressure-outlet 9.
   293  9.2363e-01  1.4587e-02  4.9382e-03  1.2997e-14  0:00:00  707

 Reversed flow on 13 faces (23.7% area) of pressure-outlet 9.
   294  9.0390e-01  1.4374e-02  5.4184e-03  1.3626e-14  0:02:21  706

 Reversed flow on 13 faces (24.9% area) of pressure-outlet 9.
   295  8.3556e-01  1.4696e-02  5.0325e-03  1.3165e-14  0:01:53  705

 Reversed flow on 30 faces (55.4% area) of pressure-outlet 9.
   296  8.5602e-01  1.5171e-02  5.3094e-03  1.3776e-14  0:01:30  704

 Reversed flow on 9 faces (13.0% area) of pressure-outlet 9.
   297  7.6035e-01  1.5450e-02  5.2348e-03  1.3964e-14  0:01:12  703

 Reversed flow on 8 faces (9.3% area) of pressure-outlet 9.

  iter  continuity  x-velocity  y-velocity      energy     time/iter
   298  7.0871e-01  1.5045e-02  5.3245e-03  1.4329e-14  0:00:58  702

 Reversed flow on 8 faces (7.1% area) of pressure-outlet 9.
   299  8.7394e-01  1.4735e-02  5.6442e-03  1.3536e-14  0:00:46  701

 Reversed flow on 8 faces (6.2% area) of pressure-outlet 9.
   300  1.0145e+00  1.5416e-02  5.6450e-03  1.2696e-14  0:00:37  700

 Reversed flow on 5 faces (3.5% area) of pressure-outlet 9.
   301  8.9799e-01  1.6129e-02  5.4681e-03  1.2229e-14  0:00:29  699

 Reversed flow on 6 faces (7.8% area) of pressure-outlet 9.
   302  1.0844e+00  1.5852e-02  5.7371e-03  1.3021e-14  0:00:23  698

 Reversed flow on 7 faces (12.9% area) of pressure-outlet 9.
   303  1.1200e+00  1.5406e-02  5.6995e-03  1.3707e-14  0:00:19  697

 Reversed flow on 7 faces (14.8% area) of pressure-outlet 9.
   304  1.1262e+00  1.4386e-02  5.4416e-03  1.5051e-14  0:00:15  696

 Reversed flow on 8 faces (18.2% area) of pressure-outlet 9.
   305  1.3989e+00  1.4808e-02  5.2213e-03  1.5013e-14  0:00:12  695

 Reversed flow on 10 faces (17.9% area) of pressure-outlet 9.
   306  1.2345e+00  1.5085e-02  4.9845e-03  1.6614e-14  0:00:10  694

 Reversed flow on 10 faces (15.7% area) of pressure-outlet 9.
   307  1.2392e+00  1.4332e-02  5.0122e-03  1.4823e-14  0:00:08  693

 Reversed flow on 9 faces (11.4% area) of pressure-outlet 9.
   308  1.4256e+00  1.5108e-02  5.0419e-03  1.4173e-14  0:00:06  692

 Reversed flow on 4 faces (5.6% area) of pressure-outlet 9.

  iter  continuity  x-velocity  y-velocity      energy     time/iter
   309  1.1844e+00  1.5775e-02  5.5880e-03  1.3007e-14  0:00:05  691

 Reversed flow on 5 faces (10.2% area) of pressure-outlet 9.
   310  1.0283e+00  1.6770e-02  6.1998e-03  1.2648e-14  0:00:04  690

 Reversed flow on 13 faces (31.3% area) of pressure-outlet 9.
   311  8.2255e-01  1.6512e-02  5.9463e-03  1.2596e-14  0:00:03  689

 Reversed flow on 8 faces (13.9% area) of pressure-outlet 9.
   312  7.5885e-01  1.6807e-02  5.8179e-03  1.3598e-14  0:00:02  688

 Reversed flow on 9 faces (13.0% area) of pressure-outlet 9.
   313  7.1450e-01  1.6577e-02  6.4212e-03  1.2833e-14  0:00:02  687

 Reversed flow on 8 faces (9.3% area) of pressure-outlet 9.
   314  7.4854e-01  1.6107e-02  6.6386e-03  1.3934e-14  0:00:02  686

 Reversed flow on 9 faces (8.7% area) of pressure-outlet 9.
   315  9.8944e-01  1.6184e-02  6.5684e-03  1.3011e-14  0:00:01  685

 Reversed flow on 9 faces (6.6% area) of pressure-outlet 9.
   316  9.3218e-01  1.6522e-02  6.5685e-03  1.3162e-14  0:00:01  684

 Reversed flow on 11 faces (8.4% area) of pressure-outlet 9.
   317  9.6704e-01  1.5913e-02  6.3937e-03  1.2675e-14  0:00:01  683

 Reversed flow on 10 faces (9.2% area) of pressure-outlet 9.
   318  9.1414e-01  1.5413e-02  6.3671e-03  1.3370e-14  0:00:01  682

 Reversed flow on 8 faces (10.7% area) of pressure-outlet 9.
   319  9.2584e-01  1.4633e-02  6.1441e-03  1.2836e-14  0:00:01  681

 Reversed flow on 7 faces (12.9% area) of pressure-outlet 9.

  iter  continuity  x-velocity  y-velocity      energy     time/iter
   320  8.5648e-01  1.3382e-02  5.5753e-03  1.3862e-14  0:00:00  680

 Reversed flow on 8 faces (18.2% area) of pressure-outlet 9.
   321  8.5829e-01  1.2273e-02  5.0706e-03  1.5179e-14  0:00:00  679

 Reversed flow on 9 faces (22.2% area) of pressure-outlet 9.
   322  1.0069e+00  1.2171e-02  4.7359e-03  1.4930e-14  0:00:00  678

 Reversed flow on 10 faces (23.4% area) of pressure-outlet 9.
   323  1.0691e+00  1.2026e-02  4.1839e-03  1.6853e-14  0:00:00  677

 Reversed flow on 12 faces (25.4% area) of pressure-outlet 9.
   324  1.1092e+00  1.1442e-02  3.9904e-03  1.5723e-14  0:00:00  676

 Reversed flow on 10 faces (18.3% area) of pressure-outlet 9.
   325  1.2470e+00  1.1719e-02  3.5264e-03  1.3683e-14  0:00:00  675

 Reversed flow on 6 faces (11.0% area) of pressure-outlet 9.
   326  7.6738e-01  1.1728e-02  3.6242e-03  1.3761e-14  0:00:00  674

 Reversed flow on 8 faces (17.4% area) of pressure-outlet 9.
   327  6.8126e-01  1.1857e-02  4.1478e-03  1.3335e-14  0:00:00  673

 Reversed flow on 10 faces (20.5% area) of pressure-outlet 9.
   328  6.1167e-01  1.2293e-02  4.1875e-03  1.3536e-14  0:00:00  672

 Reversed flow on 9 faces (13.0% area) of pressure-outlet 9.
   329  5.4783e-01  1.2207e-02  4.2419e-03  1.3742e-14  0:00:00  671

 Reversed flow on 8 faces (9.3% area) of pressure-outlet 9.
   330  6.0077e-01  1.2246e-02  4.3947e-03  1.2348e-14  0:00:00  670

 Reversed flow on 8 faces (7.1% area) of pressure-outlet 9.

  iter  continuity  x-velocity  y-velocity      energy     time/iter
   331  5.7781e-01  1.2047e-02  4.6235e-03  1.3018e-14  0:00:00  669

 Reversed flow on 7 faces (5.0% area) of pressure-outlet 9.
   332  6.1117e-01  1.1799e-02  4.7746e-03  1.3576e-14  0:00:00  668

 Reversed flow on 8 faces (4.8% area) of pressure-outlet 9.
   333  6.4406e-01  1.1599e-02  4.9019e-03  1.3706e-14  0:00:00  667

 Reversed flow on 8 faces (4.2% area) of pressure-outlet 9.
   334  6.0923e-01  1.1786e-02  4.9588e-03  1.3742e-14  0:00:00  666

 Reversed flow on 5 faces (4.6% area) of pressure-outlet 9.
   335  6.6101e-01  1.1532e-02  4.6463e-03  1.2729e-14  0:00:00  665

 Reversed flow on 3 faces (4.1% area) of pressure-outlet 9.
   336  6.4292e-01  1.0619e-02  4.4030e-03  1.3605e-14  0:02:13  664

 Reversed flow on 9 faces (19.2% area) of pressure-outlet 9.
   337  6.9330e-01  1.0351e-02  4.3636e-03  1.4276e-14  0:01:46  663

 Reversed flow on 5 faces (9.6% area) of pressure-outlet 9.
   338  6.4686e-01  1.0010e-02  3.4961e-03  1.3418e-14  0:01:25  662

 Reversed flow on 6 faces (12.6% area) of pressure-outlet 9.
   339  7.9014e-01  9.8720e-03  3.3748e-03  1.4678e-14  0:01:08  661

 Reversed flow on 1 face (2.4% area) of pressure-outlet 9.
   340  7.2408e-01  1.0180e-02  3.3231e-03  1.4194e-14  0:00:54  660

 Reversed flow on 5 faces (11.9% area) of pressure-outlet 9.
   341  7.1001e-01  1.0704e-02  3.4541e-03  1.3993e-14  0:00:43  659

 Reversed flow on 21 faces (32.9% area) of pressure-outlet 9.

  iter  continuity  x-velocity  y-velocity      energy     time/iter
   342  6.1471e-01  1.1058e-02  3.6806e-03  1.3796e-14  0:00:35  658

 Reversed flow on 16 faces (27.8% area) of pressure-outlet 9.
   343  5.8246e-01  1.1530e-02  3.8934e-03  1.3929e-14  0:00:28  657

 Reversed flow on 26 faces (46.4% area) of pressure-outlet 9.
   344  5.6863e-01  1.1738e-02  4.0189e-03  1.2724e-14  0:00:22  656

 Reversed flow on 5 faces (10.1% area) of pressure-outlet 9.
   345  4.7501e-01  1.1499e-02  4.3557e-03  1.3439e-14  0:00:18  655

 Reversed flow on 4 faces (5.0% area) of pressure-outlet 9.
   346  4.9304e-01  1.1138e-02  4.5156e-03  1.3613e-14  0:00:14  654

 Reversed flow on 7 faces (3.5% area) of pressure-outlet 9.
   347  5.8561e-01  1.0943e-02  4.6091e-03  1.2604e-14  0:00:11  653

 Reversed flow on 1 face (0.3% area) of pressure-outlet 9.
   348  5.3848e-01  1.1463e-02  4.7166e-03  1.3576e-14  0:00:09  652

 Reversed flow on 8 faces (6.9% area) of pressure-outlet 9.
   349  6.6002e-01  1.1944e-02  4.6499e-03  1.2645e-14  0:00:07  651

 Reversed flow on 12 faces (16.9% area) of pressure-outlet 9.
   350  5.8375e-01  1.1934e-02  4.7405e-03  1.3566e-14  0:00:06  650

 Reversed flow on 20 faces (31.2% area) of pressure-outlet 9.
   351  6.8171e-01  1.1842e-02  4.8945e-03  1.3860e-14  0:00:05  649

 Reversed flow on 23 faces (34.4% area) of pressure-outlet 9.
   352  7.6555e-01  1.2028e-02  4.6094e-03  1.3132e-14  0:00:04  648

 Reversed flow on 17 faces (28.0% area) of pressure-outlet 9.

  iter  continuity  x-velocity  y-velocity      energy     time/iter
   353  7.1529e-01  1.2126e-02  4.3677e-03  1.4107e-14  0:00:03  647

 Reversed flow on 27 faces (40.1% area) of pressure-outlet 9.
   354  7.2635e-01  1.2443e-02  4.0994e-03  1.4253e-14  0:00:02  646

 Reversed flow on 1 face (1.9% area) of pressure-outlet 9.
   355  6.9742e-01  1.2260e-02  3.8175e-03  1.4385e-14  0:00:02  645

 Reversed flow on 8 faces (7.4% area) of pressure-outlet 9.
   356  7.8913e-01  1.2057e-02  4.1094e-03  1.3938e-14  0:00:01  644

 Reversed flow on 17 faces (20.9% area) of pressure-outlet 9.
   357  7.5750e-01  1.3107e-02  4.3894e-03  1.2997e-14  0:00:01  643

 Reversed flow on 20 faces (34.0% area) of pressure-outlet 9.
   358  6.5087e-01  1.3240e-02  4.4598e-03  1.3613e-14  0:00:01  642

 Reversed flow on 17 faces (38.3% area) of pressure-outlet 9.
   359  7.5155e-01  1.2772e-02  4.9135e-03  1.2974e-14  0:00:01  641

 Reversed flow on 31 faces (41.4% area) of pressure-outlet 9.
   360  6.4027e-01  1.2815e-02  4.7232e-03  1.4232e-14  0:00:01  640

 Reversed flow on 15 faces (29.4% area) of pressure-outlet 9.
   361  7.5953e-01  1.2612e-02  4.8287e-03  1.4047e-14  0:00:00  639

 Reversed flow on 25 faces (20.2% area) of pressure-outlet 9.
   362  8.0919e-01  1.3901e-02  5.8564e-03  1.2860e-14  0:00:00  638

 Reversed flow on 9 faces (6.2% area) of pressure-outlet 9.
   363  7.1406e-01  1.3909e-02  5.7342e-03  1.3390e-14  0:00:00  637

 Reversed flow on 11 faces (6.6% area) of pressure-outlet 9.

  iter  continuity  x-velocity  y-velocity      energy     time/iter
   364  6.7344e-01  1.3032e-02  5.3446e-03  1.3407e-14  0:00:00  636

 Reversed flow on 5 faces (3.3% area) of pressure-outlet 9.
   365  6.8998e-01  1.3592e-02  5.5240e-03  1.2603e-14  0:00:00  635

 Reversed flow on 17 faces (14.1% area) of pressure-outlet 9.
   366  7.0001e-01  1.3416e-02  5.2911e-03  1.3660e-14  0:00:00  634

 Reversed flow on 11 faces (17.1% area) of pressure-outlet 9.
   367  9.4427e-01  1.2842e-02  5.2537e-03  1.3808e-14  0:00:00  633

 Reversed flow on 27 faces (41.1% area) of pressure-outlet 9.
   368  9.8830e-01  1.2877e-02  5.0458e-03  1.3383e-14  0:00:00  632

 Reversed flow on 12 faces (20.3% area) of pressure-outlet 9.
   369  8.9557e-01  1.2863e-02  4.6732e-03  1.4232e-14  0:00:00  631

 Reversed flow on 34 faces (53.7% area) of pressure-outlet 9.
   370  9.8090e-01  1.2898e-02  4.4873e-03  1.3685e-14  0:00:00  630

 Reversed flow on 9 faces (9.5% area) of pressure-outlet 9.
   371  9.2117e-01  1.2578e-02  4.2951e-03  1.4495e-14  0:00:00  629

 Reversed flow on 8 faces (5.6% area) of pressure-outlet 9.
   372  1.0007e+00  1.2646e-02  4.4528e-03  1.3293e-14  0:00:00  628

 Reversed flow on 11 faces (11.2% area) of pressure-outlet 9.
   373  7.5277e-01  1.3770e-02  4.6813e-03  1.3843e-14  0:00:00  627

 Reversed flow on 19 faces (29.0% area) of pressure-outlet 9.
   374  7.4950e-01  1.4238e-02  4.4649e-03  1.2927e-14  0:00:00  626

 Reversed flow on 20 faces (44.7% area) of pressure-outlet 9.

  iter  continuity  x-velocity  y-velocity      energy     time/iter
   375  7.2621e-01  1.3798e-02  4.9144e-03  1.3599e-14  0:00:00  625

 Reversed flow on 20 faces (23.6% area) of pressure-outlet 9.
   376  6.3440e-01  1.3608e-02  4.9173e-03  1.3241e-14  0:02:05  624

 Reversed flow on 25 faces (53.1% area) of pressure-outlet 9.
   377  7.8997e-01  1.3381e-02  5.0045e-03  1.4008e-14  0:01:40  623

 Reversed flow on 6 faces (6.9% area) of pressure-outlet 9.
   378  7.5424e-01  1.3679e-02  5.1946e-03  1.3593e-14  0:01:20  622

 Reversed flow on 9 faces (6.9% area) of pressure-outlet 9.
   379  6.5776e-01  1.4099e-02  5.1626e-03  1.3832e-14  0:01:04  621

 Reversed flow on 6 faces (4.4% area) of pressure-outlet 9.
   380  6.9140e-01  1.3662e-02  5.2205e-03  1.3500e-14  0:00:51  620

 Reversed flow on 6 faces (4.0% area) of pressure-outlet 9.
   381  7.1090e-01  1.4091e-02  5.4258e-03  1.3485e-14  0:00:41  619

 Reversed flow on 4 faces (2.8% area) of pressure-outlet 9.
   382  7.0154e-01  1.3852e-02  5.2677e-03  1.2676e-14  0:00:32  618

 Reversed flow on 17 faces (22.6% area) of pressure-outlet 9.
   383  8.4294e-01  1.3209e-02  5.2475e-03  1.3440e-14  0:00:26  617

 Reversed flow on 14 faces (17.7% area) of pressure-outlet 9.
   384  8.2474e-01  1.3336e-02  5.1760e-03  1.3380e-14  0:00:21  616

 Reversed flow on 27 faces (50.7% area) of pressure-outlet 9.
   385  9.5480e-01  1.3597e-02  4.8857e-03  1.4303e-14  0:00:17  615

 Reversed flow on 12 faces (16.3% area) of pressure-outlet 9.

  iter  continuity  x-velocity  y-velocity      energy     time/iter
   386  9.3522e-01  1.3696e-02  4.5183e-03  1.4008e-14  0:00:13  614

 Reversed flow on 7 faces (11.3% area) of pressure-outlet 9.
   387  9.2278e-01  1.3637e-02  4.4753e-03  1.4616e-14  0:00:11  613

 Reversed flow on 2 faces (2.2% area) of pressure-outlet 9.
   388  9.8663e-01  1.4063e-02  4.8051e-03  1.3048e-14  0:00:08  612

 Reversed flow on 4 faces (2.6% area) of pressure-outlet 9.
   389  8.5411e-01  1.4838e-02  5.1463e-03  1.3449e-14  0:00:07  611

 Reversed flow on 17 faces (25.9% area) of pressure-outlet 9.
   390  7.5623e-01  1.4862e-02  4.7788e-03  1.2860e-14  0:00:05  610

 Reversed flow on 9 faces (20.5% area) of pressure-outlet 9.
   391  8.2793e-01  1.3861e-02  5.1866e-03  1.3545e-14  0:00:04  609

 Reversed flow on 30 faces (52.2% area) of pressure-outlet 9.
   392  7.4445e-01  1.3927e-02  5.2130e-03  1.3270e-14  0:00:03  608

 Reversed flow on 7 faces (11.3% area) of pressure-outlet 9.
   393  6.6360e-01  1.3973e-02  5.3442e-03  1.4089e-14  0:00:03  607

 Reversed flow on 8 faces (10.7% area) of pressure-outlet 9.
   394  6.7449e-01  1.4166e-02  5.3992e-03  1.3324e-14  0:00:02  606

 Reversed flow on 9 faces (8.2% area) of pressure-outlet 9.
   395  7.6079e-01  1.3985e-02  5.2034e-03  1.4050e-14  0:00:02  605

 Reversed flow on 6 faces (5.2% area) of pressure-outlet 9.
   396  7.0691e-01  1.4314e-02  5.4817e-03  1.2813e-14  0:00:01  604

 Reversed flow on 6 faces (4.6% area) of pressure-outlet 9.

  iter  continuity  x-velocity  y-velocity      energy     time/iter
   397  8.6841e-01  1.4789e-02  5.5183e-03  1.3594e-14  0:00:01  603

 Reversed flow on 8 faces (6.9% area) of pressure-outlet 9.
   398  7.6336e-01  1.4807e-02  5.4634e-03  1.3414e-14  0:00:01  602

 Reversed flow on 15 faces (16.9% area) of pressure-outlet 9.
   399  8.1243e-01  1.4611e-02  5.8432e-03  1.3858e-14  0:00:01  601

 Reversed flow on 12 faces (12.2% area) of pressure-outlet 9.
   400  8.2352e-01  1.4545e-02  5.5086e-03  1.3339e-14  0:00:01  600

 Reversed flow on 23 faces (34.6% area) of pressure-outlet 9.
   401  8.9054e-01  1.4474e-02  5.2714e-03  1.4079e-14  0:00:00  599

 Reversed flow on 9 faces (16.3% area) of pressure-outlet 9.
   402  8.7490e-01  1.4460e-02  4.9159e-03  1.4208e-14  0:00:00  598

 Reversed flow on 9 faces (14.2% area) of pressure-outlet 9.
   403  9.6260e-01  1.4249e-02  4.4875e-03  1.5314e-14  0:00:00  597

 Reversed flow on 7 faces (9.9% area) of pressure-outlet 9.
   404  8.5912e-01  1.3937e-02  4.6211e-03  1.3496e-14  0:00:00  596

 Reversed flow on 3 faces (2.7% area) of pressure-outlet 9.
   405  1.0395e+00  1.4595e-02  4.8314e-03  1.3512e-14  0:00:00  595

 Reversed flow on 1 face (1.4% area) of pressure-outlet 9.
   406  8.9779e-01  1.4998e-02  5.0410e-03  1.2556e-14  0:00:00  594

 Reversed flow on 17 faces (25.2% area) of pressure-outlet 9.
   407  8.4640e-01  1.5270e-02  5.7618e-03  1.3319e-14  0:00:00  593

 Reversed flow on 15 faces (17.2% area) of pressure-outlet 9.

  iter  continuity  x-velocity  y-velocity      energy     time/iter
   408  7.5073e-01  1.5111e-02  5.4799e-03  1.2995e-14  0:00:00  592

 Reversed flow on 9 faces (14.7% area) of pressure-outlet 9.
   409  7.4570e-01  1.5560e-02  5.8339e-03  1.3610e-14  0:00:00  591

 Reversed flow on 9 faces (13.0% area) of pressure-outlet 9.
   410  7.0052e-01  1.5505e-02  5.7271e-03  1.4468e-14  0:00:00  590

 Reversed flow on 9 faces (11.4% area) of pressure-outlet 9.
   411  6.9898e-01  1.5554e-02  5.7823e-03  1.3475e-14  0:00:00  589

 Reversed flow on 8 faces (8.2% area) of pressure-outlet 9.
   412  8.1608e-01  1.5324e-02  6.0135e-03  1.2868e-14  0:00:00  588

 Reversed flow on 8 faces (7.1% area) of pressure-outlet 9.
   413  9.0173e-01  1.6406e-02  5.8384e-03  1.3905e-14  0:00:00  587

 Reversed flow on 8 faces (8.2% area) of pressure-outlet 9.
   414  8.0238e-01  1.6319e-02  5.8865e-03  1.2857e-14  0:00:00  586

 Reversed flow on 6 faces (9.0% area) of pressure-outlet 9.
   415  9.4235e-01  1.6108e-02  5.9565e-03  1.3448e-14  0:01:57  585

 Reversed flow on 6 faces (11.7% area) of pressure-outlet 9.
   416  1.1362e+00  1.5331e-02  5.9564e-03  1.3928e-14  0:01:33  584

 Reversed flow on 7 faces (16.9% area) of pressure-outlet 9.
   417  1.0445e+00  1.5006e-02  5.8125e-03  1.5237e-14  0:01:15  583

 Reversed flow on 8 faces (20.9% area) of pressure-outlet 9.
   418  1.2437e+00  1.4461e-02  5.0669e-03  1.4884e-14  0:01:00  582

 Reversed flow on 10 faces (20.5% area) of pressure-outlet 9.

  iter  continuity  x-velocity  y-velocity      energy     time/iter
   419  1.2132e+00  1.4143e-02  4.8134e-03  1.6411e-14  0:00:48  581

 Reversed flow on 10 faces (17.9% area) of pressure-outlet 9.
   420  1.2788e+00  1.3746e-02  4.9506e-03  1.5306e-14  0:00:38  580

 Reversed flow on 7 faces (11.9% area) of pressure-outlet 9.
   421  1.3983e+00  1.3771e-02  4.8204e-03  1.3180e-14  0:00:30  579

 Reversed flow on 6 faces (10.0% area) of pressure-outlet 9.
   422  1.0991e+00  1.5235e-02  5.1991e-03  1.2971e-14  0:00:24  578

 Reversed flow on 6 faces (14.5% area) of pressure-outlet 9.
   423  9.1681e-01  1.5525e-02  5.0753e-03  1.3017e-14  0:00:19  577

 Reversed flow on 16 faces (38.1% area) of pressure-outlet 9.
   424  8.4441e-01  1.5167e-02  4.9917e-03  1.2811e-14  0:00:15  576

 Reversed flow on 8 faces (13.9% area) of pressure-outlet 9.
   425  7.9689e-01  1.5063e-02  4.7499e-03  1.4031e-14  0:00:12  575

 Reversed flow on 9 faces (13.0% area) of pressure-outlet 9.
   426  7.9694e-01  1.4703e-02  5.0617e-03  1.4021e-14  0:00:10  574

 Reversed flow on 8 faces (9.3% area) of pressure-outlet 9.
   427  1.0439e+00  1.4429e-02  5.3230e-03  1.3963e-14  0:00:08  573

 Reversed flow on 8 faces (7.1% area) of pressure-outlet 9.
   428  8.4381e-01  1.5499e-02  5.5521e-03  2.3889e-15  0:00:06  572

 Reversed flow on 8 faces (6.2% area) of pressure-outlet 9.
   429  9.3424e-01  1.5031e-02  5.7857e-03  1.1393e-15  0:00:05  571

 Reversed flow on 8 faces (5.5% area) of pressure-outlet 9.

  iter  continuity  x-velocity  y-velocity      energy     time/iter
   430  1.0197e+00  1.5565e-02  5.5377e-03  9.2525e-16  0:00:04  570

 Reversed flow on 4 faces (3.4% area) of pressure-outlet 9.
   431  9.0795e-01  1.6103e-02  5.7485e-03  7.6056e-16  0:00:03  569

 Reversed flow on 2 faces (2.8% area) of pressure-outlet 9.
   432  1.2554e+00  1.5171e-02  5.7434e-03  7.4351e-16  0:00:03  568

 Reversed flow on 10 faces (21.2% area) of pressure-outlet 9.
   433  1.1783e+00  1.4767e-02  5.7673e-03  7.2527e-16  0:00:02  567

 Reversed flow on 11 faces (22.5% area) of pressure-outlet 9.
   434  1.0641e+00  1.4725e-02  5.2820e-03  7.3970e-16  0:00:02  566

 Reversed flow on 12 faces (24.2% area) of pressure-outlet 9.
   435  1.1000e+00  1.5227e-02  5.0619e-03  7.5014e-16  0:00:01  565

 Reversed flow on 9 faces (14.9% area) of pressure-outlet 9.
   436  1.1322e+00  1.5257e-02  4.9614e-03  8.5500e-16  0:00:01  564

 Reversed flow on 9 faces (13.0% area) of pressure-outlet 9.
   437  1.3764e+00  1.5812e-02  4.9802e-03  9.6496e-16  0:00:01  563

 Reversed flow on 4 faces (4.1% area) of pressure-outlet 9.
   438  1.2610e+00  1.6267e-02  5.3191e-03  1.0364e-15  0:00:01  562

 Reversed flow on 2 faces (2.0% area) of pressure-outlet 9.
   439  1.0040e+00  1.7428e-02  6.3584e-03  1.0604e-15  0:00:01  561

 Reversed flow on 11 faces (25.9% area) of pressure-outlet 9.
   440  1.0133e+00  1.8096e-02  6.2955e-03  1.0334e-15  0:00:00  560

 Reversed flow on 19 faces (28.4% area) of pressure-outlet 9.

  iter  continuity  x-velocity  y-velocity      energy     time/iter
   441  9.4310e-01  1.7734e-02  7.0363e-03  1.0044e-15  0:00:00  559

 Reversed flow on 24 faces (41.0% area) of pressure-outlet 9.
   442  9.4501e-01  1.7582e-02  6.9037e-03  9.9878e-16  0:00:00  558

 Reversed flow on 8 faces (12.2% area) of pressure-outlet 9.
   443  7.4256e-01  1.7638e-02  8.0347e-03  9.8440e-16  0:00:00  557

 Reversed flow on 8 faces (9.3% area) of pressure-outlet 9.
   444  8.7483e-01  1.7211e-02  7.6847e-03  1.0086e-15  0:00:00  556

 Reversed flow on 8 faces (8.2% area) of pressure-outlet 9.
   445  9.7801e-01  1.7128e-02  7.7435e-03  1.0031e-15  0:00:00  555

 Reversed flow on 8 faces (6.2% area) of pressure-outlet 9.
   446  1.4065e+00  1.6986e-02  7.6152e-03  1.0002e-15  0:00:00  554

 Reversed flow on 10 faces (8.0% area) of pressure-outlet 9.
   447  1.2677e+00  1.7668e-02  7.8182e-03  1.0035e-15  0:00:00  553

 Reversed flow on 11 faces (9.6% area) of pressure-outlet 9.
   448  9.2410e-01  1.6253e-02  7.4987e-03  1.0245e-15  0:00:00  552

 Reversed flow on 10 faces (12.0% area) of pressure-outlet 9.
   449  9.5407e-01  1.5499e-02  6.5889e-03  1.0194e-15  0:00:00  551

 Reversed flow on 9 faces (14.9% area) of pressure-outlet 9.
   450  9.5415e-01  1.3888e-02  6.2779e-03  1.0671e-15  0:00:00  550

 Reversed flow on 9 faces (19.4% area) of pressure-outlet 9.
   451  9.3929e-01  1.2828e-02  5.7897e-03  1.1288e-15  0:00:00  549

 Reversed flow on 9 faces (22.2% area) of pressure-outlet 9.

  iter  continuity  x-velocity  y-velocity      energy     time/iter
   452  1.0385e+00  1.1976e-02  4.7957e-03  1.1327e-15  0:00:00  548

 Reversed flow on 9 faces (25.4% area) of pressure-outlet 9.
   453  9.6723e-01  1.1648e-02  4.3792e-03  1.1599e-15  0:01:49  547

 Reversed flow on 9 faces (29.0% area) of pressure-outlet 9.
   454  8.1369e-01  1.1603e-02  3.7052e-03  1.1581e-15  0:01:27  546

 Reversed flow on 8 faces (27.3% area) of pressure-outlet 9.
   455  7.1447e-01  1.1605e-02  3.5165e-03  1.1754e-15  0:01:10  545

 Reversed flow on 9 faces (29.0% area) of pressure-outlet 9.
   456  7.4613e-01  1.1649e-02  4.0710e-03  1.1783e-15  0:00:56  544

 Reversed flow on 10 faces (30.6% area) of pressure-outlet 9.
   457  6.4617e-01  1.2621e-02  4.0382e-03  1.1729e-15  0:00:44  543

 Reversed flow on 12 faces (33.2% area) of pressure-outlet 9.
   458  6.9401e-01  1.2740e-02  4.0689e-03  1.1632e-15  0:00:36  542

 Reversed flow on 12 faces (27.6% area) of pressure-outlet 9.
   459  8.4410e-01  1.2195e-02  4.1322e-03  1.1794e-15  0:00:28  541

 Reversed flow on 8 faces (10.7% area) of pressure-outlet 9.
   460  8.0615e-01  1.1746e-02  4.4764e-03  1.1657e-15  0:00:23  540

 Reversed flow on 9 faces (9.9% area) of pressure-outlet 9.
   461  6.1606e-01  1.1560e-02  4.7014e-03  1.1561e-15  0:00:18  539

 Reversed flow on 10 faces (10.5% area) of pressure-outlet 9.
   462  7.0504e-01  1.1077e-02  4.4652e-03  1.1587e-15  0:00:14  538

 Reversed flow on 8 faces (6.2% area) of pressure-outlet 9.

  iter  continuity  x-velocity  y-velocity      energy     time/iter
   463  6.8852e-01  1.0844e-02  4.6177e-03  1.2068e-15  0:00:12  537

 Reversed flow on 9 faces (9.9% area) of pressure-outlet 9.
   464  7.2140e-01  1.0951e-02  4.6468e-03  1.2373e-15  0:00:09  536

 Reversed flow on 9 faces (13.0% area) of pressure-outlet 9.
   465  6.3277e-01  1.0278e-02  4.1783e-03  1.2591e-15  0:00:07  535

 Reversed flow on 8 faces (13.9% area) of pressure-outlet 9.
   466  6.9612e-01  9.7064e-03  3.9576e-03  1.2857e-15  0:00:06  534

 Reversed flow on 7 faces (14.8% area) of pressure-outlet 9.
   467  7.2387e-01  9.6994e-03  3.3843e-03  1.3280e-15  0:00:05  533

 Reversed flow on 7 faces (16.9% area) of pressure-outlet 9.
   468  7.6597e-01  9.5882e-03  3.1441e-03  1.3453e-15  0:00:04  532

 Reversed flow on 1 face (3.0% area) of pressure-outlet 9.
   469  8.9393e-01  9.5587e-03  3.2022e-03  1.3409e-15  0:00:03  531
   470  7.3738e-01  1.0330e-02  3.2416e-03  1.3228e-15  0:00:02  530
   471  6.2743e-01  1.0892e-02  3.5718e-03  1.2885e-15  0:00:02  529
   472  6.3468e-01  1.1642e-02  4.1262e-03  1.2927e-15  0:00:02  528

 Reversed flow on 9 faces (28.9% area) of pressure-outlet 9.
   473  6.2827e-01  1.2105e-02  4.0979e-03  1.2932e-15  0:00:01  527

 Reversed flow on 5 faces (10.4% area) of pressure-outlet 9.

  iter  continuity  x-velocity  y-velocity      energy     time/iter
   474  6.9038e-01  1.2575e-02  4.2985e-03  1.2838e-15  0:00:01  526

 Reversed flow on 7 faces (11.3% area) of pressure-outlet 9.
   475  5.0144e-01  1.2896e-02  4.2426e-03  1.2988e-15  0:00:01  525

 Reversed flow on 6 faces (7.8% area) of pressure-outlet 9.
   476  5.6326e-01  1.1805e-02  4.1035e-03  1.3244e-15  0:00:01  524

 Reversed flow on 4 faces (3.9% area) of pressure-outlet 9.
   477  6.4437e-01  1.1585e-02  4.4552e-03  1.3226e-15  0:00:00  523

 Reversed flow on 2 faces (1.7% area) of pressure-outlet 9.
   478  6.2468e-01  1.1582e-02  4.4056e-03  1.3551e-15  0:00:00  522
   479  7.8760e-01  1.1389e-02  4.1009e-03  1.3760e-15  0:00:00  521
   480  8.5300e-01  1.1617e-02  4.2894e-03  1.4136e-15  0:00:00  520

 Reversed flow on 1 face (1.4% area) of pressure-outlet 9.
   481  7.2647e-01  1.1298e-02  4.0428e-03  1.4387e-15  0:00:00  519

 Reversed flow on 16 faces (30.9% area) of pressure-outlet 9.
   482  7.9408e-01  1.0890e-02  3.9135e-03  1.4632e-15  0:00:00  518

 Reversed flow on 10 faces (9.9% area) of pressure-outlet 9.
   483  7.5900e-01  1.0720e-02  3.6847e-03  1.4741e-15  0:00:00  517

 Reversed flow on 18 faces (47.0% area) of pressure-outlet 9.
   484  8.9189e-01  1.0896e-02  3.7307e-03  1.4739e-15  0:00:00  516

 Reversed flow on 2 faces (1.1% area) of pressure-outlet 9.

  iter  continuity  x-velocity  y-velocity      energy     time/iter
   485  6.9528e-01  1.0985e-02  3.6926e-03  1.4886e-15  0:00:00  515
   486  8.1302e-01  1.1472e-02  3.8321e-03  1.4580e-15  0:00:00  514

 Reversed flow on 17 faces (34.8% area) of pressure-outlet 9.
   487  6.3037e-01  1.2305e-02  3.9718e-03  1.4614e-15  0:00:00  513

 Reversed flow on 26 faces (41.0% area) of pressure-outlet 9.
   488  6.0720e-01  1.2057e-02  4.2387e-03  1.4469e-15  0:00:00  512

 Reversed flow on 11 faces (26.4% area) of pressure-outlet 9.
   489  6.2378e-01  1.1735e-02  4.4186e-03  1.4885e-15  0:00:00  511

 Reversed flow on 24 faces (43.5% area) of pressure-outlet 9.
   490  6.9125e-01  1.1975e-02  4.4306e-03  1.4923e-15  0:00:00  510

 Reversed flow on 9 faces (12.0% area) of pressure-outlet 9.
   491  5.8836e-01  1.2184e-02  4.8978e-03  1.4922e-15  0:00:00  509

 Reversed flow on 6 faces (10.8% area) of pressure-outlet 9.
   492  5.7979e-01  1.2111e-02  4.9553e-03  1.4950e-15  0:00:00  508

 Reversed flow on 4 faces (3.9% area) of pressure-outlet 9.
   493  5.5743e-01  1.1738e-02  4.7831e-03  1.5301e-15  0:01:41  507

 Reversed flow on 7 faces (3.2% area) of pressure-outlet 9.
   494  6.1428e-01  1.1918e-02  4.9490e-03  1.5263e-15  0:01:21  506

 Reversed flow on 7 faces (7.9% area) of pressure-outlet 9.
   495  6.2311e-01  1.2304e-02  4.8301e-03  1.5819e-15  0:01:05  505

 Reversed flow on 12 faces (15.0% area) of pressure-outlet 9.

  iter  continuity  x-velocity  y-velocity      energy     time/iter
   496  7.1709e-01  1.2083e-02  4.9089e-03  1.5985e-15  0:00:52  504

 Reversed flow on 18 faces (31.0% area) of pressure-outlet 9.
   497  7.6472e-01  1.1901e-02  4.9189e-03  1.6292e-15  0:00:41  503

 Reversed flow on 19 faces (22.0% area) of pressure-outlet 9.
   498  7.3245e-01  1.1566e-02  4.4594e-03  1.6832e-15  0:00:33  502

 Reversed flow on 19 faces (49.8% area) of pressure-outlet 9.
   499  8.8915e-01  1.1435e-02  4.2904e-03  1.6853e-15  0:00:26  501

 Reversed flow on 3 faces (5.7% area) of pressure-outlet 9.
   500  8.1954e-01  1.1581e-02  4.1116e-03  1.7209e-15  0:00:21  500

 Reversed flow on 4 faces (1.2% area) of pressure-outlet 9.
   501  8.9723e-01  1.1891e-02  3.9998e-03  1.7372e-15  0:00:17  499

 Reversed flow on 3 faces (2.0% area) of pressure-outlet 9.
   502  7.3145e-01  1.2323e-02  4.1305e-03  1.7377e-15  0:00:13  498

 Reversed flow on 17 faces (22.8% area) of pressure-outlet 9.
   503  7.3631e-01  1.3189e-02  4.3084e-03  1.7416e-15  0:00:11  497

 Reversed flow on 29 faces (42.9% area) of pressure-outlet 9.
   504  7.4473e-01  1.3498e-02  4.4513e-03  1.7143e-15  0:00:09  496

 Reversed flow on 14 faces (35.0% area) of pressure-outlet 9.
   505  6.6180e-01  1.3463e-02  4.9425e-03  1.7181e-15  0:00:07  495

 Reversed flow on 33 faces (33.2% area) of pressure-outlet 9.
   506  6.4552e-01  1.3216e-02  4.6010e-03  1.7141e-15  0:00:05  494

 Reversed flow on 8 faces (23.4% area) of pressure-outlet 9.

  iter  continuity  x-velocity  y-velocity      energy     time/iter
   507  6.8693e-01  1.3013e-02  4.6363e-03  1.6813e-15  0:00:04  493

 Reversed flow on 15 faces (12.7% area) of pressure-outlet 9.
   508  6.0893e-01  1.3281e-02  5.2384e-03  1.6462e-15  0:00:03  492

 Reversed flow on 8 faces (6.8% area) of pressure-outlet 9.
   509  6.4226e-01  1.3133e-02  5.0709e-03  1.6429e-15  0:00:03  491

 Reversed flow on 11 faces (7.0% area) of pressure-outlet 9.
   510  6.5824e-01  1.2900e-02  5.1302e-03  1.6236e-15  0:00:02  490

 Reversed flow on 15 faces (12.4% area) of pressure-outlet 9.
   511  6.3926e-01  1.3619e-02  5.3024e-03  1.6271e-15  0:00:02  489

 Reversed flow on 15 faces (14.1% area) of pressure-outlet 9.
   512  6.8258e-01  1.3244e-02  5.1961e-03  1.6436e-15  0:00:01  488

 Reversed flow on 17 faces (23.4% area) of pressure-outlet 9.
   513  1.0655e+00  1.2856e-02  5.3480e-03  1.6533e-15  0:00:01  487

 Reversed flow on 12 faces (18.6% area) of pressure-outlet 9.
   514  8.1584e-01  1.3038e-02  4.7758e-03  1.6612e-15  0:00:01  486

 Reversed flow on 28 faces (57.5% area) of pressure-outlet 9.
   515  1.0709e+00  1.2608e-02  4.6805e-03  1.6959e-15  0:00:01  485

 Reversed flow on 6 faces (10.7% area) of pressure-outlet 9.
   516  9.7898e-01  1.2684e-02  4.4364e-03  1.7073e-15  0:00:01  484

 Reversed flow on 6 faces (9.3% area) of pressure-outlet 9.
   517  1.0824e+00  1.2369e-02  4.2238e-03  1.7386e-15  0:00:00  483

 Reversed flow on 4 faces (1.2% area) of pressure-outlet 9.

  iter  continuity  x-velocity  y-velocity      energy     time/iter
   518  1.1398e+00  1.2662e-02  4.3761e-03  1.7343e-15  0:00:00  482

 Reversed flow on 24 faces (38.0% area) of pressure-outlet 9.
   519  9.4500e-01  1.3886e-02  4.7926e-03  1.7264e-15  0:00:00  481

 Reversed flow on 31 faces (44.2% area) of pressure-outlet 9.
   520  8.1651e-01  1.4066e-02  4.5098e-03  1.6925e-15  0:00:00  480

 Reversed flow on 15 faces (33.2% area) of pressure-outlet 9.
   521  7.9484e-01  1.3793e-02  4.9440e-03  1.7009e-15  0:00:00  479

 Reversed flow on 28 faces (41.0% area) of pressure-outlet 9.
   522  7.1367e-01  1.4078e-02  4.6059e-03  1.7107e-15  0:00:00  478

 Reversed flow on 12 faces (29.3% area) of pressure-outlet 9.
   523  7.6742e-01  1.4121e-02  4.8182e-03  1.6887e-15  0:00:00  477

 Reversed flow on 9 faces (13.8% area) of pressure-outlet 9.
   524  1.9878e+00  1.4253e-02  5.0825e-03  1.6570e-15  0:00:00  476

 Reversed flow on 6 faces (8.9% area) of pressure-outlet 9.
   525  1.0222e+00  1.6870e-02  6.3377e-03  1.6622e-15  0:00:00  475

 Reversed flow on 6 faces (3.6% area) of pressure-outlet 9.
   526  1.0329e+00  1.5214e-02  5.8738e-03  1.6663e-15  0:00:00  474

 Reversed flow on 7 faces (3.5% area) of pressure-outlet 9.
   527  1.0824e+00  1.4985e-02  5.4135e-03  1.6879e-15  0:00:00  473

 Reversed flow on 6 faces (6.5% area) of pressure-outlet 9.
   528  9.7878e-01  1.4144e-02  5.3432e-03  1.7078e-15  0:00:00  472

 Reversed flow on 7 faces (9.7% area) of pressure-outlet 9.

  iter  continuity  x-velocity  y-velocity      energy     time/iter
   529  1.4809e+00  1.4210e-02  5.2948e-03  1.7294e-15  0:00:00  471

 Reversed flow on 7 faces (14.8% area) of pressure-outlet 9.
   530  1.2161e+00  1.3909e-02  5.2319e-03  1.7258e-15  0:00:00  470

 Reversed flow on 9 faces (14.9% area) of pressure-outlet 9.
   531  1.2110e+00  1.3746e-02  4.8635e-03  1.7043e-15  0:00:00  469

 Reversed flow on 13 faces (25.7% area) of pressure-outlet 9.
   532  9.6617e-01  1.4377e-02  4.4485e-03  1.6563e-15  0:01:34  468

 Reversed flow on 9 faces (13.0% area) of pressure-outlet 9.
   533  9.3600e-01  1.4768e-02  4.5678e-03  1.6223e-15  0:01:15  467

 Reversed flow on 10 faces (12.0% area) of pressure-outlet 9.
   534  1.0493e+00  1.4733e-02  4.9632e-03  1.5756e-15  0:01:00  466

 Reversed flow on 10 faces (10.5% area) of pressure-outlet 9.
   535  9.2016e-01  1.6272e-02  5.1548e-03  1.5352e-15  0:00:48  465

 Reversed flow on 8 faces (10.7% area) of pressure-outlet 9.
   536  8.3156e-01  1.6085e-02  5.4728e-03  1.5422e-15  0:00:38  464

 Reversed flow on 7 faces (11.3% area) of pressure-outlet 9.
   537  1.0001e+00  1.5579e-02  6.1731e-03  1.5032e-15  0:00:30  463

 Reversed flow on 8 faces (15.9% area) of pressure-outlet 9.
   538  1.0459e+00  1.5572e-02  6.2065e-03  1.4510e-15  0:00:24  462

 Reversed flow on 8 faces (13.9% area) of pressure-outlet 9.
   539  8.8073e-01  1.5963e-02  7.0015e-03  1.4012e-15  0:00:19  461

 Reversed flow on 10 faces (15.7% area) of pressure-outlet 9.

  iter  continuity  x-velocity  y-velocity      energy     time/iter
   540  9.3177e-01  1.6736e-02  6.7434e-03  1.3686e-15  0:00:15  460

 Reversed flow on 10 faces (13.7% area) of pressure-outlet 9.
   541  1.0307e+00  1.6838e-02  6.4348e-03  1.3219e-15  0:00:12  459

 Reversed flow on 13 faces (17.5% area) of pressure-outlet 9.
   542  9.2025e-01  1.7678e-02  6.2806e-03  1.2676e-15  0:00:10  458

 Reversed flow on 14 faces (18.0% area) of pressure-outlet 9.
   543  9.7609e-01  1.6629e-02  6.2193e-03  1.2718e-15  0:00:08  457

 Reversed flow on 13 faces (20.0% area) of pressure-outlet 9.
   544  8.9845e-01  1.5420e-02  6.5691e-03  1.3247e-15  0:00:06  456

 Reversed flow on 9 faces (19.4% area) of pressure-outlet 9.
   545  1.1268e+00  1.4770e-02  6.1928e-03  1.3588e-15  0:00:05  455

 Reversed flow on 8 faces (20.9% area) of pressure-outlet 9.
   546  1.2432e+00  1.4005e-02  5.7655e-03  1.3651e-15  0:00:04  454

 Reversed flow on 10 faces (26.8% area) of pressure-outlet 9.
   547  1.1090e+00  1.3600e-02  6.0174e-03  1.3592e-15  0:00:03  453

 Reversed flow on 12 faces (33.2% area) of pressure-outlet 9.
   548  1.1098e+00  1.3617e-02  4.7472e-03  1.3497e-15  0:00:03  452

 Reversed flow on 13 faces (29.9% area) of pressure-outlet 9.
   549  1.1161e+00  1.3047e-02  4.5929e-03  1.3709e-15  0:00:02  451

 Reversed flow on 15 faces (35.9% area) of pressure-outlet 9.
   550  1.4453e+00  1.3870e-02  4.5570e-03  1.3567e-15  0:00:02  450

 Reversed flow on 16 faces (36.6% area) of pressure-outlet 9.

  iter  continuity  x-velocity  y-velocity      energy     time/iter
   551  1.1047e+00  1.3861e-02  4.0868e-03  1.2987e-15  0:00:01  449

 Reversed flow on 15 faces (35.9% area) of pressure-outlet 9.
   552  9.5899e-01  1.3769e-02  4.7543e-03  1.2842e-15  0:00:01  448

 Reversed flow on 13 faces (34.2% area) of pressure-outlet 9.
   553  9.9192e-01  1.4569e-02  4.8283e-03  1.2628e-15  0:00:01  447

 Reversed flow on 13 faces (34.2% area) of pressure-outlet 9.
   554  8.0412e-01  1.5605e-02  5.4679e-03  1.2061e-15  0:00:01  446

 Reversed flow on 15 faces (35.9% area) of pressure-outlet 9.
   555  8.7940e-01  1.5291e-02  4.9626e-03  1.1686e-15  0:00:01  445

 Reversed flow on 14 faces (30.1% area) of pressure-outlet 9.
   556  1.1130e+00  1.5130e-02  5.1774e-03  1.1153e-15  0:00:00  444

 Reversed flow on 13 faces (20.0% area) of pressure-outlet 9.
   557  1.0779e+00  1.4719e-02  5.2600e-03  1.1253e-15  0:00:00  443

 Reversed flow on 14 faces (18.6% area) of pressure-outlet 9.
   558  9.6379e-01  1.3705e-02  5.3676e-03  1.1554e-15  0:00:00  442

 Reversed flow on 15 faces (16.1% area) of pressure-outlet 9.
[...]
   882  1.3435e+00  2.0728e-02  6.7175e-03  1.1268e-14  0:00:00  118

 Reversed flow on 18 faces (44.9% area) of pressure-outlet 9.
   883  1.3462e+00  2.0572e-02  7.4794e-03  1.1334e-14  0:00:00  117

 Reversed flow on 27 faces (32.3% area) of pressure-outlet 9.
   884  1.2707e+00  2.1021e-02  8.2703e-03  1.1445e-14  0:00:00  116

 Reversed flow on 26 faces (30.4% area) of pressure-outlet 9.
   885  1.2081e+00  2.3210e-02  8.6676e-03  1.1528e-14  0:00:00  115

 Reversed flow on 13 faces (14.2% area) of pressure-outlet 9.
   886  1.0089e+00  2.1279e-02  8.3410e-03  1.0779e-14  0:00:00  114

 Reversed flow on 5 faces (4.6% area) of pressure-outlet 9.
   887  1.0118e+00  2.0198e-02  8.2275e-03  1.0624e-14  0:00:00  113

 Reversed flow on 9 faces (5.0% area) of pressure-outlet 9.
   888  1.0897e+00  1.9931e-02  8.1946e-03  1.1278e-14  0:00:00  112
   889  1.2975e+00  1.8519e-02  7.9430e-03  1.1066e-14  0:00:22  111

 Reversed flow on 4 faces (1.2% area) of pressure-outlet 9.
   890  1.2793e+00  1.8051e-02  7.5578e-03  1.0925e-14  0:00:18  110
   891  1.2507e+00  1.7510e-02  7.2036e-03  1.0371e-14  0:00:14  109

 Reversed flow on 7 faces (11.0% area) of pressure-outlet 9.

  iter  continuity  x-velocity  y-velocity      energy     time/iter
   892  1.2009e+00  1.6434e-02  6.8962e-03  1.1106e-14  0:00:11  108

 Reversed flow on 13 faces (36.6% area) of pressure-outlet 9.
   893  1.3541e+00  1.5083e-02  6.4270e-03  1.1326e-14  0:00:09  107

 Reversed flow on 1 face (3.4% area) of pressure-inlet 7.

 Reversed flow on 28 faces (57.8% area) of pressure-outlet 9.
   894  1.4637e+00  1.4588e-02  5.8552e-03  1.2166e-14  0:00:07  106

 Reversed flow on 5 faces (13.2% area) of pressure-inlet 7.

 Reversed flow on 38 faces (67.8% area) of pressure-outlet 9.
   895  1.4878e+00  1.3573e-02  5.2351e-03  1.2458e-14  0:00:06  105

 Reversed flow on 16 faces (27.4% area) of pressure-inlet 7.

 Reversed flow on 31 faces (66.6% area) of pressure-outlet 9.
   896  1.0687e+00  1.2672e-02  4.3875e-03  1.2036e-14  0:00:04  104

 Reversed flow on 16 faces (27.4% area) of pressure-inlet 7.

 Reversed flow on 24 faces (51.6% area) of pressure-outlet 9.
   897  8.2454e-01  1.1459e-02  3.7681e-03  1.1696e-14  0:00:03  103

 Reversed flow on 16 faces (27.4% area) of pressure-inlet 7.

 Reversed flow on 42 faces (57.6% area) of pressure-outlet 9.
   898  7.6714e-01  9.6691e-03  3.1773e-03  1.1712e-14  0:00:03  102

 Reversed flow on 17 faces (31.8% area) of pressure-inlet 7.

 Reversed flow on 24 faces (37.8% area) of pressure-outlet 9.
   899  8.1701e-01  7.9580e-03  2.6438e-03  1.2246e-14  0:00:02  101

 Reversed flow on 16 faces (27.4% area) of pressure-inlet 7.

 Reversed flow on 39 faces (43.5% area) of pressure-outlet 9.
   900  9.3995e-01  7.3054e-03  2.1519e-03  1.2889e-14  0:00:02  100

 Reversed flow on 15 faces (23.5% area) of pressure-inlet 7.

 Reversed flow on 41 faces (51.4% area) of pressure-outlet 9.
   901  8.0711e-01  7.6075e-03  2.2099e-03  1.2546e-14  0:00:01   99

 Reversed flow on 14 faces (20.1% area) of pressure-inlet 7.

 Reversed flow on 27 faces (44.7% area) of pressure-outlet 9.
   902  7.5469e-01  7.5407e-03  2.1677e-03  1.1277e-14  0:00:01   98

 Reversed flow on 13 faces (17.1% area) of pressure-inlet 7.

 Reversed flow on 23 faces (30.3% area) of pressure-outlet 9.

  iter  continuity  x-velocity  y-velocity      energy     time/iter
   903  7.2420e-01  7.9780e-03  2.3552e-03  1.1606e-14  0:00:01   97

 Reversed flow on 13 faces (17.1% area) of pressure-inlet 7.

 Reversed flow on 29 faces (38.9% area) of pressure-outlet 9.
   904  7.2415e-01  7.9512e-03  2.5078e-03  1.0942e-14  0:00:01   96

 Reversed flow on 13 faces (17.1% area) of pressure-inlet 7.

 Reversed flow on 26 faces (33.1% area) of pressure-outlet 9.
   905  6.9239e-01  8.0752e-03  2.5434e-03  1.2019e-14  0:00:01   95

 Reversed flow on 12 faces (14.5% area) of pressure-inlet 7.

 Reversed flow on 19 faces (34.7% area) of pressure-outlet 9.
   906  7.2267e-01  8.2726e-03  2.7252e-03  1.2400e-14  0:00:00   94

 Reversed flow on 12 faces (14.5% area) of pressure-inlet 7.

 Reversed flow on 19 faces (28.8% area) of pressure-outlet 9.
   907  8.1590e-01  8.9194e-03  3.0411e-03  1.2194e-14  0:00:00   93

 Reversed flow on 11 faces (12.2% area) of pressure-inlet 7.

 Reversed flow on 26 faces (39.9% area) of pressure-outlet 9.
   908  1.0075e+00  9.8740e-03  3.3188e-03  1.3043e-14  0:00:00   92

 Reversed flow on 11 faces (12.2% area) of pressure-inlet 7.

 Reversed flow on 31 faces (39.6% area) of pressure-outlet 9.
   909  1.1539e+00  1.0985e-02  3.6649e-03  1.2515e-14  0:00:00   91

 Reversed flow on 10 faces (10.2% area) of pressure-inlet 7.

 Reversed flow on 23 faces (44.9% area) of pressure-outlet 9.
   910  1.0536e+00  1.1975e-02  3.9503e-03  1.3531e-14  0:00:00   90

 Reversed flow on 10 faces (10.2% area) of pressure-inlet 7.

 Reversed flow on 29 faces (40.7% area) of pressure-outlet 9.
   911  1.0782e+00  1.2171e-02  4.1387e-03  1.3679e-14  0:00:00   89

 Reversed flow on 8 faces (8.0% area) of pressure-inlet 7.

 Reversed flow on 25 faces (29.4% area) of pressure-outlet 9.
   912  1.1850e+00  1.2228e-02  4.3590e-03  1.4096e-14  0:00:00   88

 Reversed flow on 8 faces (8.0% area) of pressure-inlet 7.

 Reversed flow on 23 faces (34.4% area) of pressure-outlet 9.
   913  1.1886e+00  1.3105e-02  4.5108e-03  1.4182e-14  0:00:00   87

 Reversed flow on 8 faces (7.0% area) of pressure-inlet 7.

 Reversed flow on 23 faces (39.2% area) of pressure-outlet 9.

  iter  continuity  x-velocity  y-velocity      energy     time/iter
   914  1.4646e+00  1.4040e-02  4.9373e-03  1.3983e-14  0:00:00   86

 Reversed flow on 6 faces (5.1% area) of pressure-inlet 7.

 Reversed flow on 18 faces (16.6% area) of pressure-outlet 9.
   915  1.2362e+00  1.6969e-02  5.3848e-03  1.4217e-14  0:00:00   85

 Reversed flow on 4 faces (3.4% area) of pressure-inlet 7.

 Reversed flow on 15 faces (19.0% area) of pressure-outlet 9.
   916  1.2683e+00  1.7217e-02  6.0947e-03  1.3056e-14  0:00:00   84

 Reversed flow on 15 faces (19.1% area) of pressure-outlet 9.
   917  1.0678e+00  1.8771e-02  6.3092e-03  1.3351e-14  0:00:00   83

 Reversed flow on 29 faces (43.8% area) of pressure-outlet 9.
   918  1.2000e+00  1.8565e-02  6.6436e-03  1.3436e-14  0:00:00   82

 Reversed flow on 20 faces (39.5% area) of pressure-outlet 9.
   919  1.4353e+00  1.9521e-02  7.1608e-03  1.3560e-14  0:00:00   81

 Reversed flow on 26 faces (47.1% area) of pressure-outlet 9.
   920  1.1658e+00  2.2525e-02  7.8467e-03  1.2802e-14  0:00:00   80

 Reversed flow on 24 faces (21.0% area) of pressure-outlet 9.
   921  1.1843e+00  2.1867e-02  7.7286e-03  1.3127e-14  0:00:00   79

 Reversed flow on 18 faces (42.7% area) of pressure-outlet 9.
   922  1.0563e+00  2.0763e-02  7.3898e-03  1.3020e-14  0:00:16   78

 Reversed flow on 17 faces (15.8% area) of pressure-outlet 9.
   923  1.0280e+00  1.8752e-02  7.9046e-03  1.3015e-14  0:00:12   77

 Reversed flow on 6 faces (3.3% area) of pressure-outlet 9.
   924  1.5291e+00  1.7829e-02  7.5188e-03  1.2528e-14  0:00:10   76

 Reversed flow on 12 faces (14.3% area) of pressure-outlet 9.

  iter  continuity  x-velocity  y-velocity      energy     time/iter
   925  1.1660e+00  1.7585e-02  7.3288e-03  1.1954e-14  0:00:08   75

 Reversed flow on 9 faces (8.2% area) of pressure-outlet 9.
   926  1.2006e+00  1.6622e-02  6.8368e-03  1.1482e-14  0:00:06   74

 Reversed flow on 28 faces (39.4% area) of pressure-outlet 9.
   927  1.2183e+00  1.5579e-02  6.5719e-03  1.2083e-14  0:00:05   73

 Reversed flow on 37 faces (55.8% area) of pressure-outlet 9.
   928  1.2523e+00  1.4537e-02  5.9673e-03  1.2389e-14  0:00:04   72

 Reversed flow on 34 faces (58.3% area) of pressure-outlet 9.
   929  1.3640e+00  1.3728e-02  5.3288e-03  1.1857e-14  0:00:03   71

 Reversed flow on 30 faces (57.7% area) of pressure-outlet 9.
   930  9.5292e-01  1.3034e-02  4.5964e-03  1.3239e-14  0:00:02   70

 Reversed flow on 36 faces (57.5% area) of pressure-outlet 9.
   931  8.8123e-01  1.1803e-02  3.8649e-03  1.3720e-14  0:00:02   69

 Reversed flow on 29 faces (24.4% area) of pressure-outlet 9.
   932  9.1062e-01  1.0907e-02  3.3702e-03  1.3637e-14  0:00:01   68

 Reversed flow on 25 faces (37.4% area) of pressure-outlet 9.
   933  1.0346e+00  9.5928e-03  3.1356e-03  1.2387e-14  0:00:01   67

 Reversed flow on 3 faces (2.4% area) of pressure-inlet 7.

 Reversed flow on 28 faces (47.0% area) of pressure-outlet 9.
   934  1.0109e+00  9.7877e-03  2.9821e-03  1.1740e-14  0:00:01   66

 Reversed flow on 3 faces (2.4% area) of pressure-inlet 7.

 Reversed flow on 30 faces (40.7% area) of pressure-outlet 9.
   935  1.1796e+00  9.7678e-03  3.2337e-03  1.2604e-14  0:00:01   65

 Reversed flow on 1 face (0.9% area) of pressure-inlet 7.

 Reversed flow on 20 faces (41.9% area) of pressure-outlet 9.

  iter  continuity  x-velocity  y-velocity      energy     time/iter
   936  1.0401e+00  1.0468e-02  3.4459e-03  1.2474e-14  0:00:01   64

 Reversed flow on 25 faces (32.8% area) of pressure-outlet 9.
   937  8.7388e-01  1.0643e-02  3.5249e-03  1.2686e-14  0:00:00   63

 Reversed flow on 25 faces (36.1% area) of pressure-outlet 9.
   938  7.6945e-01  1.0845e-02  3.8024e-03  1.1725e-14  0:00:00   62

 Reversed flow on 22 faces (40.0% area) of pressure-outlet 9.
   939  6.8661e-01  1.0838e-02  3.9869e-03  1.2732e-14  0:00:00   61

 Reversed flow on 13 faces (9.8% area) of pressure-outlet 9.
   940  9.5283e-01  1.0484e-02  3.9558e-03  1.2877e-14  0:00:00   60

 Reversed flow on 17 faces (22.6% area) of pressure-outlet 9.
   941  9.8898e-01  1.1074e-02  4.1180e-03  1.1900e-14  0:00:00   59

 Reversed flow on 6 faces (3.3% area) of pressure-outlet 9.
   942  7.8116e-01  1.0895e-02  3.8802e-03  1.3039e-14  0:00:00   58

 Reversed flow on 16 faces (27.4% area) of pressure-outlet 9.
   943  8.9585e-01  1.0934e-02  3.7403e-03  1.2212e-14  0:00:00   57

 Reversed flow on 15 faces (12.1% area) of pressure-outlet 9.
   944  9.3422e-01  1.0241e-02  3.6332e-03  1.1839e-14  0:00:00   56

 Reversed flow on 23 faces (47.3% area) of pressure-outlet 9.
   945  1.2081e+00  9.2946e-03  3.3327e-03  1.2497e-14  0:00:00   55

 Reversed flow on 32 faces (56.6% area) of pressure-outlet 9.
   946  9.7263e-01  9.0328e-03  3.0460e-03  1.3067e-14  0:00:00   54

 Reversed flow on 32 faces (51.1% area) of pressure-outlet 9.

  iter  continuity  x-velocity  y-velocity      energy     time/iter
   947  8.3312e-01  8.3915e-03  2.4947e-03  1.4375e-14  0:00:00   53

 Reversed flow on 30 faces (46.7% area) of pressure-outlet 9.
   948  7.4935e-01  7.4265e-03  2.1560e-03  1.4634e-14  0:00:00   52

 Reversed flow on 28 faces (39.6% area) of pressure-outlet 9.
   949  7.7172e-01  7.0952e-03  1.9476e-03  1.4367e-14  0:00:00   51

 Reversed flow on 22 faces (43.0% area) of pressure-outlet 9.
   950  8.8501e-01  7.0286e-03  1.9983e-03  1.4019e-14  0:00:00   50

 Reversed flow on 21 faces (34.3% area) of pressure-outlet 9.
   951  1.0973e+00  8.4047e-03  2.3272e-03  1.2483e-14  0:00:00   49

 Reversed flow on 22 faces (28.7% area) of pressure-outlet 9.
   952  9.4761e-01  9.2884e-03  2.2105e-03  1.3145e-14  0:00:00   48

 Reversed flow on 29 faces (42.3% area) of pressure-outlet 9.
   953  7.9705e-01  9.7252e-03  2.5658e-03  1.3423e-14  0:00:00   47

 Reversed flow on 24 faces (36.7% area) of pressure-outlet 9.
   954  6.9216e-01  9.1806e-03  2.4566e-03  1.2269e-14  0:00:00   46

 Reversed flow on 20 faces (20.6% area) of pressure-outlet 9.
   955  6.7637e-01  8.3779e-03  2.5287e-03  1.1906e-14  0:00:00   45

 Reversed flow on 21 faces (31.2% area) of pressure-outlet 9.
   956  8.3757e-01  8.1849e-03  2.5274e-03  1.2681e-14  0:00:00   44

 Reversed flow on 18 faces (37.2% area) of pressure-outlet 9.
   957  7.7381e-01  8.8694e-03  2.5686e-03  1.3292e-14  0:00:00   43

 Reversed flow on 14 faces (17.3% area) of pressure-outlet 9.

  iter  continuity  x-velocity  y-velocity      energy     time/iter
   958  8.0020e-01  8.1357e-03  2.5014e-03  1.2413e-14  0:00:08   42

 Reversed flow on 8 faces (7.5% area) of pressure-outlet 9.
   959  8.3665e-01  8.3402e-03  2.5388e-03  1.3457e-14  0:00:07   41

 Reversed flow on 29 faces (47.3% area) of pressure-outlet 9.
   960  1.0440e+00  8.0926e-03  2.5816e-03  1.2527e-14  0:00:05   40

 Reversed flow on 16 faces (35.1% area) of pressure-outlet 9.
   961  9.7464e-01  8.2377e-03  2.5746e-03  1.3412e-14  0:00:04   39

 Reversed flow on 30 faces (45.3% area) of pressure-outlet 9.
   962  1.0274e+00  8.0601e-03  2.4885e-03  1.3526e-14  0:00:03   38

 Reversed flow on 29 faces (38.2% area) of pressure-outlet 9.
   963  9.6121e-01  8.1233e-03  2.3384e-03  1.3651e-14  0:00:02   37

 Reversed flow on 14 faces (32.1% area) of pressure-outlet 9.
   964  8.7095e-01  8.5901e-03  2.3967e-03  1.2836e-14  0:00:02   36

 Reversed flow on 31 faces (45.9% area) of pressure-outlet 9.
   965  9.1087e-01  8.7722e-03  2.8425e-03  1.2271e-14  0:00:01   35

 Reversed flow on 8 faces (16.7% area) of pressure-outlet 9.
   966  7.5984e-01  9.9705e-03  3.0330e-03  1.3628e-14  0:00:01   34

 Reversed flow on 19 faces (43.7% area) of pressure-outlet 9.
   967  7.0756e-01  1.1091e-02  3.2430e-03  1.2610e-14  0:00:01   33

 Reversed flow on 10 faces (20.6% area) of pressure-outlet 9.
   968  7.1384e-01  1.1566e-02  3.6066e-03  1.3798e-14  0:00:01   32

 Reversed flow on 17 faces (26.3% area) of pressure-outlet 9.

  iter  continuity  x-velocity  y-velocity      energy     time/iter
   969  6.7127e-01  1.1682e-02  3.9135e-03  1.3617e-14  0:00:01   31

 Reversed flow on 21 faces (33.5% area) of pressure-outlet 9.
   970  7.2997e-01  1.1557e-02  4.1935e-03  1.3802e-14  0:00:00   30

 Reversed flow on 14 faces (17.5% area) of pressure-outlet 9.
   971  6.7245e-01  1.1603e-02  4.4601e-03  1.3846e-14  0:00:00   29

 Reversed flow on 14 faces (25.4% area) of pressure-outlet 9.
   972  6.6248e-01  1.1522e-02  4.5722e-03  1.4026e-14  0:00:00   28

 Reversed flow on 10 faces (6.7% area) of pressure-outlet 9.
   973  6.9619e-01  1.1559e-02  4.6436e-03  1.3949e-14  0:00:00   27

 Reversed flow on 9 faces (6.7% area) of pressure-outlet 9.
   974  8.5513e-01  1.2435e-02  4.8972e-03  1.3015e-14  0:00:00   26

 Reversed flow on 10 faces (6.1% area) of pressure-outlet 9.
   975  7.9907e-01  1.3695e-02  5.1474e-03  1.3594e-14  0:00:00   25

 Reversed flow on 13 faces (11.8% area) of pressure-outlet 9.
   976  7.8750e-01  1.3592e-02  5.0654e-03  1.2910e-14  0:00:00   24

 Reversed flow on 11 faces (10.6% area) of pressure-outlet 9.
   977  8.7329e-01  1.3120e-02  5.1904e-03  1.3733e-14  0:00:00   23

 Reversed flow on 12 faces (15.0% area) of pressure-outlet 9.
   978  8.4333e-01  1.2455e-02  4.8369e-03  1.4738e-14  0:00:00   22

 Reversed flow on 8 faces (15.3% area) of pressure-outlet 9.
   979  9.9998e-01  1.2172e-02  4.5852e-03  1.5756e-14  0:00:00   21

 Reversed flow on 7 faces (16.9% area) of pressure-outlet 9.

  iter  continuity  x-velocity  y-velocity      energy     time/iter
   980  1.0364e+00  1.2199e-02  4.2520e-03  1.5584e-14  0:00:00   20

 Reversed flow on 10 faces (16.6% area) of pressure-outlet 9.
   981  1.2092e+00  1.2261e-02  4.0109e-03  1.4934e-14  0:00:00   19

 Reversed flow on 4 faces (6.4% area) of pressure-outlet 9.
   982  1.2281e+00  1.2366e-02  4.1407e-03  1.3685e-14  0:00:00   18

 Reversed flow on 3 faces (4.7% area) of pressure-outlet 9.
   983  8.9033e-01  1.3342e-02  4.4144e-03  1.3002e-14  0:00:00   17

 Reversed flow on 16 faces (19.9% area) of pressure-outlet 9.
   984  6.9310e-01  1.4686e-02  4.6206e-03  1.3184e-14  0:00:00   16

 Reversed flow on 14 faces (29.7% area) of pressure-outlet 9.
   985  6.8687e-01  1.4488e-02  4.7933e-03  1.3510e-14  0:00:00   15

 Reversed flow on 14 faces (21.4% area) of pressure-outlet 9.
   986  7.0190e-01  1.3741e-02  4.5057e-03  1.4283e-14  0:00:00   14

 Reversed flow on 7 faces (9.9% area) of pressure-outlet 9.
   987  6.6700e-01  1.3229e-02  5.1932e-03  1.3801e-14  0:00:00   13

 Reversed flow on 5 faces (5.3% area) of pressure-outlet 9.
   988  6.1929e-01  1.3123e-02  5.0820e-03  1.2964e-14  0:00:00   12

 Reversed flow on 6 faces (5.2% area) of pressure-outlet 9.
   989  7.9614e-01  1.2881e-02  5.0069e-03  1.2815e-14  0:00:02   11

 Reversed flow on 6 faces (4.6% area) of pressure-outlet 9.
   990  1.0507e+00  1.2789e-02  5.2329e-03  1.3540e-14  0:00:02   10

 Reversed flow on 7 faces (5.8% area) of pressure-outlet 9.

  iter  continuity  x-velocity  y-velocity      energy     time/iter
   991  8.5683e-01  1.3704e-02  5.3032e-03  1.3424e-14  0:00:01    9

 Reversed flow on 7 faces (7.5% area) of pressure-outlet 9.
   992  7.3882e-01  1.2837e-02  4.8393e-03  1.4056e-14  0:00:01    8

 Reversed flow on 7 faces (9.9% area) of pressure-outlet 9.
   993  7.7704e-01  1.1905e-02  4.8161e-03  1.4375e-14  0:00:01    7

 Reversed flow on 6 faces (10.2% area) of pressure-outlet 9.
   994  7.6122e-01  1.1347e-02  4.3219e-03  1.3915e-14  0:00:00    6

 Reversed flow on 7 faces (14.8% area) of pressure-outlet 9.
   995  9.4718e-01  1.0940e-02  3.9576e-03  1.5543e-14  0:00:00    5

 Reversed flow on 6 faces (13.4% area) of pressure-outlet 9.
   996  1.0498e+00  1.0721e-02  3.7747e-03  1.4403e-14  0:00:00    4

 Reversed flow on 5 faces (11.8% area) of pressure-outlet 9.
   997  1.1530e+00  1.1192e-02  3.5628e-03  1.3386e-14  0:00:00    3

 Reversed flow on 3 faces (7.5% area) of pressure-outlet 9.
   998  8.4414e-01  1.1628e-02  3.8676e-03  1.3527e-14  0:00:00    2

 Reversed flow on 5 faces (11.8% area) of pressure-outlet 9.
   999  8.6493e-01  1.2357e-02  4.2939e-03  1.3411e-14  0:00:00    1

 Reversed flow on 6 faces (13.4% area) of pressure-outlet 9.
  1000  6.0855e-01  1.4011e-02  4.1136e-03  1.3678e-14  0:00:00    0
Writing "| gzip -2cf > SolutionMonitor.gz"...
Writing temporary file C:\\Users\\deubanks\\AppData\\Local\\Temp\\flntgz-97883 ...
Done.

Writing data to C:\\Users\\deubanks\\AppData\\Local\\Temp\\NozzleB.tmp\\NozzleB_files\\dp0\\FFF-5\\Fluent\\FFF-5.ip ...
	x-coord
	y-coord
	pressure
	x-velocity
	y-velocity
	temperature
Done.
Writing "| gzip -2cf > FFF-5-2.cas.gz"...
Writing temporary file C:\\Users\\deubanks\\AppData\\Local\\Temp\\flntgz-97884 ...
    1109 mixed cells, zone  3, binary.
    1109 cell partition ids, zone  3, 4 partitions, binary.
    2056 2D interior faces, zone  1, binary.
      80 2D interior faces, zone  2, binary.
       5 2D pressure-inlet faces, zone  6, binary.
      25 2D pressure-inlet faces, zone  7, binary.
      30 2D wall faces, zone  8, binary.
      65 2D pressure-outlet faces, zone  9, binary.
      35 2D axis faces, zone 10, binary.
    1188 nodes, binary.
    1188 node flags, binary.
Done.

Writing "| gzip -2cf > FFF-5-2-01000.dat.gz"...
Writing temporary file C:\\Users\\deubanks\\AppData\\Local\\Temp\\flntgz-97885 ...
Done.


Performance Timer for 1000 iterations on 4 compute nodes
  Average wall-clock time per iteration:              0.002 sec
  Global reductions per iteration:                       68 ops
  Global reductions time per iteration:               0.000 sec (0.0%)
  Message count per iteration:                         2094 messages
  Data transfer per iteration:                        0.132 MB
  LE solves per iteration:                                4 solves
  LE wall-clock time per iteration:                   0.001 sec (43.8%)
  LE global solves per iteration:                         6 solves
  LE global wall-clock time per iteration:            0.000 sec (3.9%)
  LE global matrix maximum size:                        23
  AMG cycles per iteration:                           8.955 cycles
  Relaxation sweeps per iteration:                      171 sweeps
  Relaxation exchanges per iteration:                     0 exchanges
  LE early protections (stall) per iteration:           0.001 times
  LE early protections (divergence) per iteration:      0.000 times

  Total wall-clock time:                              1.810 sec

