
Build Time: Apr 16 2019 10:49:06 
Executable Path: C:/PROGRA~1/ANSYSI~1/v194/fluent/ntbin/win64/fluent.exe

-------------------------------------------------------------------------------
ID    Hostname        Core  O.S.         PID    Vendor                    
-------------------------------------------------------------------------------
n3    X-ARMS2106PC64  4/12  Windows-x64  16376  Intel(R) Core(TM) i7-8700 
n2    X-ARMS2106PC64  3/12  Windows-x64  2544   Intel(R) Core(TM) i7-8700 
n1    X-ARMS2106PC64  2/12  Windows-x64  15048  Intel(R) Core(TM) i7-8700 
n0*   X-ARMS2106PC64  1/12  Windows-x64  13964  Intel(R) Core(TM) i7-8700 
host  X-ARMS2106PC64        Windows-x64  15064  Intel(R) Core(TM) i7-8700 

MPI Option Selected: ibmmpi
Selected system interconnect: default
-------------------------------------------------------------------------------
Warning: Ignoring WB preference save-post-processing-images
Multicore SMT processors detected. Processor affinity set!
Reading "\\nas01.itap.purdue.edu\puhome\Desktop\412GIT\AAE412_Project\ANSYS_Files\NozzleB\NozzleB_files\dp0\FFF-5\MECH\FFF-5.1.msh"...
Buffering for file scan...

   38021 nodes, binary.
     960 nodes, binary.
   76030 2D interior faces, zone  1, binary.
     490 2D interior faces, zone  2, binary.
      40 2D velocity-inlet faces, zone  6, binary.
     150 2D velocity-inlet faces, zone  7, binary.
     140 2D wall faces, zone  8, binary.
     380 2D wall faces, zone  9, binary.
     250 2D axis faces, zone 10, binary.
   38500 quadrilateral cells, zone  3, binary.


Following contexts active in the case file have been de-activated because of their current context control conditions:
"coupled-pseudo-transient"

Building...
     mesh
	auto partitioning mesh by Metis (fast),
	distributing mesh
		parts....,
		faces....,
		nodes....,
		cells....,
        bandwidth reduction using Reverse Cuthill-McKee: 9617/91 = 105.681
     materials,
     interface,
     domains,
	mixture
     zones,
	axis
	farfield
	nozzlewall
	ambientinlet
	flowinlet
	solid-surface_body
	surface_body
	interior-surface_bodySetting solid-surface_body (mixture) ... Done.

Applying mesh operation "Change Zone Type"

Applying mesh operation "Change Zone Type [ 2 ]"

Applying mesh operation "Change Zone Type [ 3 ]"
 Setting zone id of solid-surface_body to 3.
 Setting zone id of flowinlet to 6.
 Setting zone id of farfield to 9.
 Setting zone id of ambientinlet to 7.
 Setting zone id of interior-surface_body to 1.
 Setting zone id of surface_body to 2.
 Setting zone id of nozzlewall to 8.
 Setting zone id of axis to 10.
Done.
Setting solid-surface_body (mixture) ... Done.
Setting flowinlet (mixture) ... Done.
Setting farfield (mixture) ... Done.
Setting ambientinlet (mixture) ... Done.
Setting interior-surface_body (mixture) ... Done.
Setting surface_body (mixture) ... Done.
Setting nozzlewall (mixture) ... Done.
Setting axis (mixture) ... Done.

     parallel,
Done.

Preparing mesh for display...
Warning: The use of axis boundary conditions is not appropriate for
         a 2D/3D flow problem. Please consider changing the zone
         type to symmetry or wall, or the problem to axisymmetric.

Warning: The use of axis boundary conditions is not appropriate for
         a 2D/3D flow problem. Please consider changing the zone
         type to symmetry or wall, or the problem to axisymmetric.

Done.
Warning: The use of axis boundary conditions is not appropriate for
         a 2D/3D flow problem. Please consider changing the zone
         type to symmetry or wall, or the problem to axisymmetric.

"Updating Setup cell..."
"Updating Solution cell..."
Reading \\\\nas01.itap.purdue.edu\\puhome\\Desktop\\412GIT\\AAE412_Project\\ANSYS_Files\\NozzleB\\NozzleB_files\\dp0\\FFF-5\\Fluent\\FFF-5.ip...
Reading IP data ...
	x-coord
	y-coord
	pressure
	x-velocity
	y-velocity
	temperature
  Done.
  Initializing values...
  Done.
Writing "| gzip -2cf > FFF-5.1-Setup-Output.cas.gz"...
Writing temporary file C:\\Users\\deubanks\\AppData\\Local\\Temp\\flntgz-150642 ...
   38500 quadrilateral cells, zone  3, binary.
   38500 cell partition ids, zone  3, 4 partitions, binary.
   76030 2D interior faces, zone  1, binary.
     490 2D interior faces, zone  2, binary.
      40 2D pressure-inlet faces, zone  6, binary.
     150 2D pressure-inlet faces, zone  7, binary.
     140 2D wall faces, zone  8, binary.
     380 2D pressure-outlet faces, zone  9, binary.
     250 2D axis faces, zone 10, binary.
   38981 nodes, binary.
   38981 node flags, binary.
Done.


  iter  continuity  x-velocity  y-velocity      energy     time/iter

 Reversed flow on 42 faces (11.2% area) of pressure-outlet 9.
     1  1.0000e+00  4.5322e-03  2.3164e-03  4.2983e-15  0:00:00  999

 Reversed flow on 43 faces (11.1% area) of pressure-outlet 9.
     2  9.0611e-01  5.4117e-03  3.8593e-03  2.2205e-15  0:00:00  998

 Reversed flow on 43 faces (10.0% area) of pressure-outlet 9.
     3  5.3225e-01  4.0506e-03  2.1051e-03  4.1826e-16  0:16:37  997

 Reversed flow on 40 faces (8.6% area) of pressure-outlet 9.
     4  3.6551e-01  3.8060e-03  1.8384e-03  2.2968e-16  0:13:17  996

 Reversed flow on 41 faces (8.3% area) of pressure-outlet 9.
     5  3.4937e-01  3.6256e-03  1.7678e-03  1.8281e-16  0:10:37  995

 Reversed flow on 41 faces (7.7% area) of pressure-outlet 9.
     6  2.4108e-01  3.5236e-03  1.7119e-03  1.6609e-16  0:08:29  994

 Reversed flow on 40 faces (7.1% area) of pressure-outlet 9.
     7  1.9645e-01  3.4829e-03  1.6142e-03  1.5707e-16  0:06:47  993

 Reversed flow on 40 faces (6.6% area) of pressure-outlet 9.
     8  1.7022e-01  3.4489e-03  1.5436e-03  1.5347e-16  0:05:25  992

 Reversed flow on 34 faces (4.9% area) of pressure-outlet 9.
     9  1.5028e-01  3.4386e-03  1.5485e-03  1.5096e-16  0:04:20  991

 Reversed flow on 36 faces (5.1% area) of pressure-outlet 9.
    10  1.3926e-01  3.4491e-03  1.5484e-03  1.5241e-16  0:03:28  990

 Reversed flow on 38 faces (5.3% area) of pressure-outlet 9.
    11  1.2404e-01  3.4837e-03  1.5611e-03  1.5170e-16  0:02:46  989

 Reversed flow on 33 faces (4.1% area) of pressure-outlet 9.

  iter  continuity  x-velocity  y-velocity      energy     time/iter
    12  1.2603e-01  3.5167e-03  1.5943e-03  1.5018e-16  0:02:13  988

 Reversed flow on 33 faces (4.0% area) of pressure-outlet 9.
    13  1.1793e-01  3.5471e-03  1.6282e-03  1.5109e-16  0:01:46  987

 Reversed flow on 31 faces (3.5% area) of pressure-outlet 9.
    14  1.3431e-01  3.6053e-03  1.6520e-03  1.5107e-16  0:01:25  986

 Reversed flow on 28 faces (2.9% area) of pressure-outlet 9.
    15  1.1909e-01  3.6691e-03  1.6833e-03  1.5171e-16  0:01:08  985

 Reversed flow on 21 faces (2.0% area) of pressure-outlet 9.
    16  1.2846e-01  3.6854e-03  1.7160e-03  1.5459e-16  0:00:54  984

 Reversed flow on 18 faces (1.6% area) of pressure-outlet 9.
    17  1.1761e-01  3.7160e-03  1.7378e-03  1.5122e-16  0:00:43  983

 Reversed flow on 14 faces (1.1% area) of pressure-outlet 9.
    18  1.2479e-01  3.7681e-03  1.7556e-03  1.5289e-16  0:00:35  982

 Reversed flow on 10 faces (0.8% area) of pressure-outlet 9.
    19  1.1622e-01  3.8236e-03  1.7809e-03  1.5341e-16  0:00:28  981
    20  1.1032e-01  3.8683e-03  1.8209e-03  1.5048e-16  0:00:22  980
    21  1.1044e-01  3.9113e-03  1.8527e-03  1.5216e-16  0:00:18  979
    22  1.2550e-01  3.9100e-03  1.8779e-03  1.5241e-16  0:00:14  978

 Reversed flow on 20 faces (2.8% area) of pressure-outlet 9.

  iter  continuity  x-velocity  y-velocity      energy     time/iter
    23  1.2953e-01  3.9396e-03  1.9168e-03  1.5332e-16  0:00:11  977
    24  1.4225e-01  3.9814e-03  1.9517e-03  1.5281e-16  0:00:09  976

 Reversed flow on 21 faces (3.1% area) of pressure-outlet 9.
    25  1.3172e-01  4.0394e-03  1.9739e-03  1.5182e-16  0:00:07  975

 Reversed flow on 21 faces (3.4% area) of pressure-outlet 9.
    26  1.5034e-01  4.0468e-03  2.0003e-03  1.5341e-16  0:00:06  974

 Reversed flow on 21 faces (3.5% area) of pressure-outlet 9.
    27  1.3605e-01  4.0849e-03  2.0330e-03  1.5297e-16  0:03:19  973

 Reversed flow on 24 faces (5.4% area) of pressure-outlet 9.
    28  1.5723e-01  4.1681e-03  2.0613e-03  1.5203e-16  0:02:39  972

 Reversed flow on 48 faces (22.1% area) of pressure-outlet 9.
    29  1.6626e-01  4.2999e-03  2.1286e-03  1.5257e-16  0:02:07  971

 Reversed flow on 55 faces (25.5% area) of pressure-outlet 9.
    30  1.5296e-01  4.4225e-03  2.1988e-03  1.5317e-16  0:01:42  970

 Reversed flow on 66 faces (28.9% area) of pressure-outlet 9.
    31  1.6025e-01  4.5721e-03  2.2786e-03  1.5190e-16  0:01:21  969

 Reversed flow on 80 faces (35.7% area) of pressure-outlet 9.
    32  1.5273e-01  4.7363e-03  2.3518e-03  1.4798e-16  0:01:05  968

 Reversed flow on 121 faces (43.2% area) of pressure-outlet 9.
    33  1.5540e-01  4.9096e-03  2.4195e-03  1.4986e-16  0:00:52  967

 Reversed flow on 114 faces (39.4% area) of pressure-outlet 9.

  iter  continuity  x-velocity  y-velocity      energy     time/iter
    34  1.7482e-01  5.0541e-03  2.5373e-03  1.5109e-16  0:00:41  966

 Reversed flow on 113 faces (38.5% area) of pressure-outlet 9.
    35  1.5662e-01  5.2454e-03  2.6165e-03  1.5179e-16  0:00:33  965

 Reversed flow on 121 faces (40.4% area) of pressure-outlet 9.
    36  1.5381e-01  5.3797e-03  2.7178e-03  1.5186e-16  0:00:26  964

 Reversed flow on 94 faces (35.7% area) of pressure-outlet 9.
    37  1.7504e-01  5.5378e-03  2.8088e-03  1.5180e-16  0:00:21  963

 Reversed flow on 122 faces (38.9% area) of pressure-outlet 9.
    38  2.1540e-01  5.6745e-03  2.9117e-03  1.5324e-16  0:00:17  962

 Reversed flow on 85 faces (26.3% area) of pressure-outlet 9.
    39  1.6923e-01  5.8842e-03  2.9724e-03  1.5161e-16  0:00:14  961

 Reversed flow on 88 faces (26.7% area) of pressure-outlet 9.
    40  1.6598e-01  6.0259e-03  3.0261e-03  1.5111e-16  0:00:11  960

 Reversed flow on 67 faces (21.0% area) of pressure-outlet 9.
    41  1.7125e-01  6.1609e-03  3.0633e-03  1.5237e-16  0:00:09  959

 Reversed flow on 54 faces (10.3% area) of pressure-outlet 9.
    42  1.7554e-01  6.2480e-03  3.1193e-03  1.5214e-16  0:00:07  958

 Reversed flow on 53 faces (9.1% area) of pressure-outlet 9.
    43  1.6155e-01  6.3264e-03  3.1675e-03  1.5083e-16  0:00:06  957

 Reversed flow on 51 faces (6.6% area) of pressure-outlet 9.
    44  1.6802e-01  6.4078e-03  3.1991e-03  1.4940e-16  0:00:04  956

 Reversed flow on 50 faces (6.1% area) of pressure-outlet 9.

  iter  continuity  x-velocity  y-velocity      energy     time/iter
    45  1.6331e-01  6.4830e-03  3.2656e-03  1.5197e-16  0:00:04  955

 Reversed flow on 50 faces (5.8% area) of pressure-outlet 9.
    46  1.7729e-01  6.5333e-03  3.3121e-03  1.5483e-16  0:00:03  954

 Reversed flow on 48 faces (5.2% area) of pressure-outlet 9.
    47  1.4984e-01  6.5762e-03  3.3814e-03  1.5316e-16  0:00:02  953

 Reversed flow on 49 faces (5.1% area) of pressure-outlet 9.
    48  1.7817e-01  6.5483e-03  3.4446e-03  1.5549e-16  0:00:02  952

 Reversed flow on 47 faces (4.6% area) of pressure-outlet 9.
    49  1.6328e-01  6.5917e-03  3.4987e-03  1.5140e-16  0:00:01  951

 Reversed flow on 43 faces (3.9% area) of pressure-outlet 9.
    50  1.8571e-01  6.6769e-03  3.5579e-03  1.5226e-16  0:00:01  950

 Reversed flow on 42 faces (3.7% area) of pressure-outlet 9.
    51  1.9040e-01  6.7247e-03  3.6259e-03  1.5447e-16  0:03:11  949

 Reversed flow on 36 faces (2.9% area) of pressure-outlet 9.
    52  1.9431e-01  6.8548e-03  3.7153e-03  1.5409e-16  0:02:32  948

 Reversed flow on 18 faces (1.2% area) of pressure-outlet 9.
    53  1.9371e-01  6.9050e-03  3.7736e-03  1.5275e-16  0:02:02  947

 Reversed flow on 10 faces (0.6% area) of pressure-outlet 9.
    54  1.8068e-01  7.0086e-03  3.8447e-03  1.5113e-16  0:01:37  946

 Reversed flow on 6 faces (0.4% area) of pressure-outlet 9.
    55  1.7277e-01  7.0979e-03  3.9093e-03  1.5311e-16  0:01:18  945

 Reversed flow on 7 faces (0.8% area) of pressure-outlet 9.

  iter  continuity  x-velocity  y-velocity      energy     time/iter
    56  1.9984e-01  7.1369e-03  3.9928e-03  1.5379e-16  0:01:02  944

 Reversed flow on 14 faces (1.7% area) of pressure-outlet 9.
    57  1.7455e-01  7.2633e-03  4.0694e-03  1.5315e-16  0:00:50  943

 Reversed flow on 22 faces (2.9% area) of pressure-outlet 9.
    58  1.7538e-01  7.2776e-03  4.1379e-03  1.5127e-16  0:00:40  942

 Reversed flow on 28 faces (4.0% area) of pressure-outlet 9.
    59  1.8862e-01  7.3371e-03  4.2107e-03  1.5254e-16  0:00:32  941

 Reversed flow on 64 faces (23.6% area) of pressure-outlet 9.
    60  1.9720e-01  7.4380e-03  4.2649e-03  1.5252e-16  0:00:25  940

 Reversed flow on 52 faces (17.2% area) of pressure-outlet 9.
    61  1.7668e-01  7.4282e-03  4.3401e-03  1.5195e-16  0:00:20  939

 Reversed flow on 77 faces (30.3% area) of pressure-outlet 9.
    62  2.0062e-01  7.4400e-03  4.4310e-03  1.5113e-16  0:00:16  938

 Reversed flow on 117 faces (42.3% area) of pressure-outlet 9.
    63  2.0133e-01  7.4616e-03  4.4797e-03  1.5128e-16  0:00:13  937

 Reversed flow on 92 faces (32.6% area) of pressure-outlet 9.
    64  1.9676e-01  7.4384e-03  4.5685e-03  1.5058e-16  0:00:10  936

 Reversed flow on 96 faces (37.0% area) of pressure-outlet 9.
    65  1.8133e-01  7.4124e-03  4.6119e-03  1.5439e-16  0:00:08  935

 Reversed flow on 103 faces (38.8% area) of pressure-outlet 9.
    66  2.1636e-01  7.4306e-03  4.6699e-03  1.5532e-16  0:00:07  934

 Reversed flow on 133 faces (40.0% area) of pressure-outlet 9.

  iter  continuity  x-velocity  y-velocity      energy     time/iter
    67  2.3116e-01  7.4641e-03  4.7556e-03  1.5194e-16  0:00:05  933

 Reversed flow on 110 faces (36.1% area) of pressure-outlet 9.
    68  1.8318e-01  7.5889e-03  4.7829e-03  1.5387e-16  0:00:04  932

 Reversed flow on 123 faces (41.9% area) of pressure-outlet 9.
    69  1.9916e-01  7.5360e-03  4.8353e-03  1.5221e-16  0:00:03  931

 Reversed flow on 94 faces (29.6% area) of pressure-outlet 9.
    70  1.7435e-01  7.5232e-03  4.8719e-03  1.5517e-16  0:00:03  930

 Reversed flow on 103 faces (36.4% area) of pressure-outlet 9.
    71  1.7983e-01  7.5982e-03  4.8829e-03  1.5565e-16  0:00:02  929

 Reversed flow on 72 faces (24.4% area) of pressure-outlet 9.
    72  1.6157e-01  7.6131e-03  4.9110e-03  1.5534e-16  0:03:07  928

 Reversed flow on 72 faces (23.0% area) of pressure-outlet 9.
    73  1.6539e-01  7.6403e-03  4.9286e-03  1.5356e-16  0:02:30  927

 Reversed flow on 58 faces (12.1% area) of pressure-outlet 9.
    74  1.5899e-01  7.6393e-03  4.9432e-03  1.5433e-16  0:02:00  926

 Reversed flow on 59 faces (12.8% area) of pressure-outlet 9.
    75  1.7393e-01  7.6023e-03  4.9749e-03  1.5252e-16  0:01:36  925

 Reversed flow on 55 faces (8.1% area) of pressure-outlet 9.
    76  1.7282e-01  7.6390e-03  4.9618e-03  1.5372e-16  0:01:16  924

 Reversed flow on 54 faces (7.5% area) of pressure-outlet 9.
    77  1.6461e-01  7.4929e-03  4.9649e-03  1.5556e-16  0:01:01  923

 Reversed flow on 58 faces (7.8% area) of pressure-outlet 9.

  iter  continuity  x-velocity  y-velocity      energy     time/iter
    78  1.6149e-01  7.3621e-03  4.9440e-03  1.5325e-16  0:00:49  922

 Reversed flow on 55 faces (7.0% area) of pressure-outlet 9.
    79  1.9176e-01  7.1976e-03  4.9306e-03  1.5053e-16  0:00:39  921

 Reversed flow on 54 faces (6.5% area) of pressure-outlet 9.
    80  1.6491e-01  7.1479e-03  4.9155e-03  1.4985e-16  0:00:31  920

 Reversed flow on 57 faces (6.8% area) of pressure-outlet 9.
    81  1.9930e-01  7.0436e-03  4.8989e-03  1.5177e-16  0:00:25  919

 Reversed flow on 54 faces (5.9% area) of pressure-outlet 9.
    82  1.6023e-01  6.9401e-03  4.8766e-03  1.5202e-16  0:00:20  918

 Reversed flow on 55 faces (5.9% area) of pressure-outlet 9.
    83  1.7713e-01  6.7355e-03  4.8710e-03  1.5519e-16  0:00:16  917

 Reversed flow on 51 faces (5.0% area) of pressure-outlet 9.
    84  1.7903e-01  6.6280e-03  4.8312e-03  1.5459e-16  0:00:13  916

 Reversed flow on 54 faces (5.2% area) of pressure-outlet 9.
    85  1.6798e-01  6.5881e-03  4.7974e-03  1.5113e-16  0:00:10  915

 Reversed flow on 49 faces (4.4% area) of pressure-outlet 9.
    86  1.5637e-01  6.4898e-03  4.7671e-03  1.5028e-16  0:00:08  914

 Reversed flow on 48 faces (4.0% area) of pressure-outlet 9.
    87  1.9072e-01  6.3477e-03  4.7244e-03  1.5248e-16  0:00:06  913

 Reversed flow on 38 faces (3.0% area) of pressure-outlet 9.
    88  2.0220e-01  6.2760e-03  4.6610e-03  1.5464e-16  0:00:05  912

 Reversed flow on 29 faces (2.1% area) of pressure-outlet 9.

  iter  continuity  x-velocity  y-velocity      energy     time/iter
    89  1.7378e-01  6.3566e-03  4.5772e-03  1.5492e-16  0:00:04  911

 Reversed flow on 15 faces (0.9% area) of pressure-outlet 9.
    90  1.8480e-01  6.2563e-03  4.5050e-03  1.5196e-16  0:00:03  910

 Reversed flow on 7 faces (0.3% area) of pressure-outlet 9.
    91  1.8307e-01  6.3411e-03  4.4239e-03  1.5219e-16  0:00:03  909

 Reversed flow on 7 faces (0.9% area) of pressure-outlet 9.
    92  2.0544e-01  6.2240e-03  4.3733e-03  1.5224e-16  0:00:02  908

 Reversed flow on 11 faces (1.4% area) of pressure-outlet 9.
    93  1.6657e-01  6.2935e-03  4.3031e-03  1.5075e-16  0:00:02  907

 Reversed flow on 18 faces (2.3% area) of pressure-outlet 9.
    94  2.0908e-01  6.1617e-03  4.2432e-03  1.5445e-16  0:00:01  906

 Reversed flow on 21 faces (2.7% area) of pressure-outlet 9.
    95  1.6600e-01  6.2120e-03  4.2094e-03  1.5213e-16  0:03:02  905

 Reversed flow on 22 faces (2.9% area) of pressure-outlet 9.
    96  1.8377e-01  6.0932e-03  4.1533e-03  1.5259e-16  0:02:26  904

 Reversed flow on 22 faces (2.9% area) of pressure-outlet 9.
    97  1.6234e-01  6.0401e-03  4.1053e-03  1.5242e-16  0:01:56  903

 Reversed flow on 55 faces (23.5% area) of pressure-outlet 9.
    98  1.6729e-01  5.9724e-03  4.0747e-03  1.5167e-16  0:01:33  902

 Reversed flow on 59 faces (27.1% area) of pressure-outlet 9.
    99  1.7120e-01  6.0012e-03  4.0207e-03  1.5137e-16  0:01:14  901

 Reversed flow on 77 faces (32.6% area) of pressure-outlet 9.

  iter  continuity  x-velocity  y-velocity      energy     time/iter
   100  1.7133e-01  5.9722e-03  3.9746e-03  1.5120e-16  0:00:59  900

 Reversed flow on 83 faces (34.9% area) of pressure-outlet 9.
   101  1.7231e-01  5.9744e-03  3.9505e-03  1.5215e-16  0:00:47  899

 Reversed flow on 98 faces (37.2% area) of pressure-outlet 9.
   102  1.8341e-01  5.9892e-03  3.9274e-03  1.5141e-16  0:00:38  898

 Reversed flow on 102 faces (39.5% area) of pressure-outlet 9.
   103  1.8084e-01  6.0232e-03  3.8913e-03  1.5049e-16  0:00:30  897

 Reversed flow on 100 faces (34.9% area) of pressure-outlet 9.
   104  1.6130e-01  6.0989e-03  3.8582e-03  1.5120e-16  0:00:24  896

 Reversed flow on 98 faces (37.9% area) of pressure-outlet 9.
   105  1.7236e-01  6.0875e-03  3.8278e-03  1.5300e-16  0:00:19  895

 Reversed flow on 102 faces (38.2% area) of pressure-outlet 9.
   106  1.6923e-01  6.1524e-03  3.8177e-03  1.5052e-16  0:00:15  894

 Reversed flow on 83 faces (34.6% area) of pressure-outlet 9.
   107  1.8562e-01  6.1613e-03  3.8052e-03  1.5170e-16  0:00:12  893

 Reversed flow on 106 faces (38.8% area) of pressure-outlet 9.
   108  1.5495e-01  6.2772e-03  3.8051e-03  1.4985e-16  0:00:10  892

 Reversed flow on 71 faces (26.0% area) of pressure-outlet 9.
   109  1.5762e-01  6.2947e-03  3.8008e-03  1.4672e-16  0:00:08  891

 Reversed flow on 62 faces (20.6% area) of pressure-outlet 9.
   110  1.4318e-01  6.3218e-03  3.8092e-03  1.4939e-16  0:00:06  890

 Reversed flow on 50 faces (14.9% area) of pressure-outlet 9.

  iter  continuity  x-velocity  y-velocity      energy     time/iter
   111  1.3816e-01  6.2886e-03  3.8041e-03  1.4791e-16  0:00:05  889

 Reversed flow on 39 faces (5.3% area) of pressure-outlet 9.
   112  1.3694e-01  6.1870e-03  3.8117e-03  1.5227e-16  0:00:04  888

 Reversed flow on 41 faces (6.7% area) of pressure-outlet 9.
   113  1.3798e-01  6.1265e-03  3.8179e-03  1.5387e-16  0:00:03  887

 Reversed flow on 37 faces (3.7% area) of pressure-outlet 9.
   114  1.4796e-01  5.9988e-03  3.8276e-03  1.5258e-16  0:00:03  886

 Reversed flow on 35 faces (3.2% area) of pressure-outlet 9.
   115  1.5109e-01  5.9001e-03  3.8217e-03  1.5355e-16  0:00:02  885

 Reversed flow on 34 faces (3.0% area) of pressure-outlet 9.
   116  1.6266e-01  5.8079e-03  3.7998e-03  1.5135e-16  0:02:58  884

 Reversed flow on 33 faces (2.7% area) of pressure-outlet 9.
   117  1.6709e-01  5.7361e-03  3.7504e-03  1.5330e-16  0:02:23  883

 Reversed flow on 31 faces (2.5% area) of pressure-outlet 9.
   118  1.5522e-01  5.6376e-03  3.6978e-03  1.4977e-16  0:01:54  882

 Reversed flow on 28 faces (2.1% area) of pressure-outlet 9.
   119  1.6461e-01  5.5309e-03  3.6350e-03  1.5193e-16  0:01:31  881

 Reversed flow on 26 faces (1.8% area) of pressure-outlet 9.
   120  1.6619e-01  5.4614e-03  3.5659e-03  1.5271e-16  0:01:13  880

 Reversed flow on 21 faces (5.4% area) of pressure-outlet 9.
   121  1.7020e-01  5.3718e-03  3.5159e-03  1.4937e-16  0:00:58  879

 Reversed flow on 23 faces (10.3% area) of pressure-outlet 9.

  iter  continuity  x-velocity  y-velocity      energy     time/iter
   122  1.6692e-01  5.2869e-03  3.4601e-03  1.4887e-16  0:00:46  878

 Reversed flow on 25 faces (14.4% area) of pressure-outlet 9.
   123  1.7246e-01  5.2049e-03  3.3913e-03  1.4948e-16  0:00:37  877

 Reversed flow on 23 faces (13.3% area) of pressure-outlet 9.
   124  1.8494e-01  5.1554e-03  3.3272e-03  1.4914e-16  0:00:30  876

 Reversed flow on 29 faces (21.7% area) of pressure-outlet 9.
   125  1.7649e-01  5.1091e-03  3.2725e-03  1.4749e-16  0:00:24  875

 Reversed flow on 36 faces (24.4% area) of pressure-outlet 9.
   126  1.7625e-01  5.0470e-03  3.2242e-03  1.5278e-16  0:00:19  874

 Reversed flow on 51 faces (29.9% area) of pressure-outlet 9.
   127  1.7082e-01  5.0301e-03  3.1780e-03  1.5373e-16  0:00:15  873

 Reversed flow on 73 faces (36.7% area) of pressure-outlet 9.
   128  1.6295e-01  5.0179e-03  3.1256e-03  1.5319e-16  0:00:12  872

 Reversed flow on 78 faces (37.6% area) of pressure-outlet 9.
   129  1.5680e-01  4.9947e-03  3.0799e-03  1.5460e-16  0:00:10  871

 Reversed flow on 93 faces (40.1% area) of pressure-outlet 9.
   130  1.4964e-01  4.9705e-03  3.0234e-03  1.5322e-16  0:00:08  870

 Reversed flow on 122 faces (45.8% area) of pressure-outlet 9.
   131  1.4619e-01  4.9645e-03  2.9756e-03  1.5138e-16  0:00:06  869

 Reversed flow on 146 faces (49.6% area) of pressure-outlet 9.
   132  1.5116e-01  4.9539e-03  2.9530e-03  1.5170e-16  0:00:05  868

 Reversed flow on 171 faces (49.7% area) of pressure-outlet 9.

  iter  continuity  x-velocity  y-velocity      energy     time/iter
   133  1.6170e-01  4.9472e-03  2.9476e-03  1.5067e-16  0:00:04  867

 Reversed flow on 165 faces (50.8% area) of pressure-outlet 9.
   134  1.5270e-01  4.9549e-03  2.9447e-03  1.4960e-16  0:00:03  866

 Reversed flow on 174 faces (52.8% area) of pressure-outlet 9.
   135  1.5661e-01  4.9345e-03  2.9339e-03  1.4865e-16  0:00:03  865

 Reversed flow on 168 faces (52.0% area) of pressure-outlet 9.
   136  1.5788e-01  4.8762e-03  2.9533e-03  1.5004e-16  0:00:02  864

 Reversed flow on 151 faces (49.8% area) of pressure-outlet 9.
   137  1.6362e-01  4.8773e-03  2.9643e-03  1.4904e-16  0:00:02  863

 Reversed flow on 157 faces (50.2% area) of pressure-outlet 9.
   138  1.7295e-01  4.8738e-03  2.9895e-03  1.4946e-16  0:00:01  862

 Reversed flow on 147 faces (51.0% area) of pressure-outlet 9.
   139  1.6278e-01  4.9103e-03  3.0145e-03  1.4910e-16  0:00:01  861

 Reversed flow on 166 faces (53.8% area) of pressure-outlet 9.
   140  1.6027e-01  4.9569e-03  3.0124e-03  1.5283e-16  0:02:53  860

 Reversed flow on 137 faces (48.4% area) of pressure-outlet 9.
   141  1.6208e-01  5.0182e-03  3.0298e-03  1.5256e-16  0:02:18  859

 Reversed flow on 149 faces (49.6% area) of pressure-outlet 9.
   142  1.7077e-01  5.0544e-03  3.0743e-03  1.5147e-16  0:01:50  858

 Reversed flow on 199 faces (62.5% area) of pressure-outlet 9.
   143  1.5631e-01  5.1170e-03  3.1012e-03  1.5132e-16  0:01:28  857

 Reversed flow on 6 faces (3.5% area) of pressure-inlet 7.

 Reversed flow on 167 faces (61.1% area) of pressure-outlet 9.

  iter  continuity  x-velocity  y-velocity      energy     time/iter
   144  1.5718e-01  5.1437e-03  3.1296e-03  1.5142e-16  0:01:10  856

 Reversed flow on 8 faces (4.7% area) of pressure-inlet 7.

 Reversed flow on 202 faces (65.1% area) of pressure-outlet 9.
   145  1.5661e-01  5.2062e-03  3.1700e-03  1.5165e-16  0:00:56  855

 Reversed flow on 14 faces (8.2% area) of pressure-inlet 7.

 Reversed flow on 201 faces (64.6% area) of pressure-outlet 9.
   146  1.5651e-01  5.3073e-03  3.1984e-03  1.5081e-16  0:00:45  854

 Reversed flow on 18 faces (10.6% area) of pressure-inlet 7.

 Reversed flow on 186 faces (60.1% area) of pressure-outlet 9.
   147  1.4832e-01  5.3893e-03  3.2293e-03  1.4987e-16  0:00:36  853

 Reversed flow on 21 faces (12.3% area) of pressure-inlet 7.

 Reversed flow on 189 faces (58.9% area) of pressure-outlet 9.
   148  1.5390e-01  5.4344e-03  3.2537e-03  1.5149e-16  0:00:29  852

 Reversed flow on 25 faces (14.7% area) of pressure-inlet 7.

 Reversed flow on 172 faces (45.9% area) of pressure-outlet 9.
   149  1.5751e-01  5.5110e-03  3.2900e-03  1.4960e-16  0:00:23  851

 Reversed flow on 29 faces (16.7% area) of pressure-inlet 7.

 Reversed flow on 155 faces (44.1% area) of pressure-outlet 9.
   150  1.8676e-01  5.5471e-03  3.3047e-03  1.5138e-16  0:00:18  850

 Reversed flow on 32 faces (18.3% area) of pressure-inlet 7.

 Reversed flow on 156 faces (38.3% area) of pressure-outlet 9.
   151  1.6970e-01  5.6074e-03  3.3200e-03  1.5134e-16  0:00:15  849

 Reversed flow on 36 faces (20.2% area) of pressure-inlet 7.

 Reversed flow on 110 faces (31.1% area) of pressure-outlet 9.
   152  1.6553e-01  5.6079e-03  3.2928e-03  1.5257e-16  0:00:12  848

 Reversed flow on 40 faces (22.0% area) of pressure-inlet 7.

 Reversed flow on 196 faces (37.7% area) of pressure-outlet 9.
   153  1.6105e-01  5.6048e-03  3.2699e-03  1.5052e-16  0:00:09  847

 Reversed flow on 44 faces (23.8% area) of pressure-inlet 7.

 Reversed flow on 122 faces (28.5% area) of pressure-outlet 9.
   154  1.7925e-01  5.5705e-03  3.2501e-03  1.5036e-16  0:00:07  846

 Reversed flow on 48 faces (25.6% area) of pressure-inlet 7.

 Reversed flow on 194 faces (35.3% area) of pressure-outlet 9.

  iter  continuity  x-velocity  y-velocity      energy     time/iter
   155  1.6882e-01  5.5452e-03  3.2220e-03  1.5269e-16  0:00:06  845

 Reversed flow on 52 faces (26.6% area) of pressure-inlet 7.

 Reversed flow on 106 faces (22.5% area) of pressure-outlet 9.
   156  1.7345e-01  5.4456e-03  3.1892e-03  1.5365e-16  0:00:05  844

 Reversed flow on 56 faces (27.5% area) of pressure-inlet 7.

 Reversed flow on 190 faces (35.0% area) of pressure-outlet 9.
   157  1.8750e-01  5.3867e-03  3.1554e-03  1.5405e-16  0:00:04  843

 Reversed flow on 61 faces (28.5% area) of pressure-inlet 7.

 Reversed flow on 124 faces (31.7% area) of pressure-outlet 9.
   158  1.8366e-01  5.3431e-03  3.1334e-03  1.5285e-16  0:00:03  842

 Reversed flow on 66 faces (27.9% area) of pressure-inlet 7.

 Reversed flow on 200 faces (39.1% area) of pressure-outlet 9.
   159  1.7552e-01  5.2746e-03  3.1232e-03  1.4819e-16  0:00:02  841

 Reversed flow on 66 faces (20.8% area) of pressure-inlet 7.

 Reversed flow on 186 faces (40.3% area) of pressure-outlet 9.
   160  1.8799e-01  5.2115e-03  3.1001e-03  1.4791e-16  0:02:50  840

 Reversed flow on 91 faces (21.9% area) of pressure-inlet 7.

 Reversed flow on 173 faces (43.2% area) of pressure-outlet 9.
   161  1.7169e-01  5.2127e-03  3.0846e-03  1.4840e-16  0:02:16  839

 Reversed flow on 92 faces (20.3% area) of pressure-inlet 7.

 Reversed flow on 181 faces (43.6% area) of pressure-outlet 9.
   162  1.7284e-01  5.1739e-03  3.0758e-03  1.5107e-16  0:01:49  838

 Reversed flow on 91 faces (19.7% area) of pressure-inlet 7.

 Reversed flow on 183 faces (46.7% area) of pressure-outlet 9.
   163  1.6055e-01  5.0888e-03  3.0769e-03  1.5064e-16  0:01:27  837

 Reversed flow on 90 faces (19.1% area) of pressure-inlet 7.

 Reversed flow on 155 faces (43.8% area) of pressure-outlet 9.
   164  1.6405e-01  5.0682e-03  3.0703e-03  1.5224e-16  0:01:09  836

 Reversed flow on 89 faces (18.6% area) of pressure-inlet 7.

 Reversed flow on 159 faces (43.6% area) of pressure-outlet 9.
   165  1.7303e-01  5.0918e-03  3.0740e-03  1.5139e-16  0:00:55  835

 Reversed flow on 88 faces (18.0% area) of pressure-inlet 7.

 Reversed flow on 148 faces (44.0% area) of pressure-outlet 9.

  iter  continuity  x-velocity  y-velocity      energy     time/iter
   166  1.8109e-01  5.1296e-03  3.0697e-03  1.5169e-16  0:00:44  834

 Reversed flow on 87 faces (17.5% area) of pressure-inlet 7.

 Reversed flow on 148 faces (45.6% area) of pressure-outlet 9.
   167  1.6758e-01  5.1481e-03  3.0826e-03  1.5217e-16  0:00:35  833

 Reversed flow on 87 faces (17.5% area) of pressure-inlet 7.

 Reversed flow on 159 faces (44.3% area) of pressure-outlet 9.
   168  1.5464e-01  5.1629e-03  3.0857e-03  1.5046e-16  0:00:28  832

 Reversed flow on 88 faces (18.0% area) of pressure-inlet 7.

 Reversed flow on 146 faces (46.8% area) of pressure-outlet 9.
   169  1.5841e-01  5.2462e-03  3.0997e-03  1.5000e-16  0:00:23  831

 Reversed flow on 88 faces (18.0% area) of pressure-inlet 7.

 Reversed flow on 142 faces (45.0% area) of pressure-outlet 9.
   170  1.5885e-01  5.3705e-03  3.1423e-03  1.5128e-16  0:00:18  830

 Reversed flow on 89 faces (18.6% area) of pressure-inlet 7.

 Reversed flow on 151 faces (46.8% area) of pressure-outlet 9.
   171  1.5876e-01  5.4848e-03  3.1829e-03  1.5244e-16  0:00:14  829

 Reversed flow on 89 faces (18.6% area) of pressure-inlet 7.

 Reversed flow on 143 faces (48.4% area) of pressure-outlet 9.
   172  1.4770e-01  5.5000e-03  3.2455e-03  1.5419e-16  0:00:12  828

 Reversed flow on 90 faces (19.1% area) of pressure-inlet 7.

 Reversed flow on 158 faces (48.7% area) of pressure-outlet 9.
   173  1.4968e-01  5.5226e-03  3.2870e-03  1.5329e-16  0:00:09  827

 Reversed flow on 90 faces (19.1% area) of pressure-inlet 7.

 Reversed flow on 146 faces (48.4% area) of pressure-outlet 9.
   174  1.6678e-01  5.6180e-03  3.3583e-03  1.5321e-16  0:00:07  826

 Reversed flow on 91 faces (19.7% area) of pressure-inlet 7.

 Reversed flow on 157 faces (51.4% area) of pressure-outlet 9.
   175  1.6509e-01  5.8407e-03  3.4490e-03  1.5324e-16  0:00:06  825

 Reversed flow on 91 faces (19.7% area) of pressure-inlet 7.

 Reversed flow on 166 faces (51.7% area) of pressure-outlet 9.
   176  1.6479e-01  5.9386e-03  3.5196e-03  1.5296e-16  0:00:05  824

 Reversed flow on 92 faces (20.3% area) of pressure-inlet 7.

 Reversed flow on 140 faces (47.6% area) of pressure-outlet 9.

  iter  continuity  x-velocity  y-velocity      energy     time/iter
   177  1.7218e-01  5.9446e-03  3.6397e-03  1.5141e-16  0:00:04  823

 Reversed flow on 90 faces (19.6% area) of pressure-inlet 7.

 Reversed flow on 142 faces (47.9% area) of pressure-outlet 9.
   178  1.9383e-01  6.0783e-03  3.7173e-03  1.4987e-16  0:00:03  822

 Reversed flow on 91 faces (20.2% area) of pressure-inlet 7.

 Reversed flow on 163 faces (50.5% area) of pressure-outlet 9.
   179  1.9410e-01  6.2909e-03  3.7996e-03  1.5145e-16  0:00:02  821

 Reversed flow on 90 faces (19.7% area) of pressure-inlet 7.

 Reversed flow on 134 faces (49.2% area) of pressure-outlet 9.
   180  1.7285e-01  6.3973e-03  3.8910e-03  1.5305e-16  0:00:02  820

 Reversed flow on 91 faces (20.2% area) of pressure-inlet 7.

 Reversed flow on 164 faces (53.1% area) of pressure-outlet 9.
   181  1.7069e-01  6.4841e-03  4.0025e-03  1.5175e-16  0:00:02  819

 Reversed flow on 89 faces (19.6% area) of pressure-inlet 7.

 Reversed flow on 169 faces (54.4% area) of pressure-outlet 9.
   182  1.7780e-01  6.5865e-03  4.0861e-03  1.5189e-16  0:02:45  818

 Reversed flow on 90 faces (20.2% area) of pressure-inlet 7.

 Reversed flow on 163 faces (54.2% area) of pressure-outlet 9.
   183  1.8961e-01  6.7546e-03  4.1554e-03  1.5280e-16  0:02:12  817

 Reversed flow on 90 faces (20.1% area) of pressure-inlet 7.

 Reversed flow on 160 faces (56.4% area) of pressure-outlet 9.
   184  1.8149e-01  6.8637e-03  4.2455e-03  1.5401e-16  0:01:45  816

 Reversed flow on 90 faces (20.2% area) of pressure-inlet 7.

 Reversed flow on 207 faces (62.9% area) of pressure-outlet 9.
   185  1.8358e-01  6.9164e-03  4.3350e-03  1.5257e-16  0:01:24  815

 Reversed flow on 91 faces (20.7% area) of pressure-inlet 7.

 Reversed flow on 212 faces (64.4% area) of pressure-outlet 9.
   186  1.9693e-01  6.9996e-03  4.4326e-03  1.5436e-16  0:01:07  814

 Reversed flow on 91 faces (20.2% area) of pressure-inlet 7.

 Reversed flow on 176 faces (59.0% area) of pressure-outlet 9.
   187  1.8500e-01  7.1508e-03  4.5150e-03  1.5546e-16  0:00:54  813

 Reversed flow on 94 faces (22.0% area) of pressure-inlet 7.

 Reversed flow on 202 faces (60.3% area) of pressure-outlet 9.

  iter  continuity  x-velocity  y-velocity      energy     time/iter
   188  1.7646e-01  7.2568e-03  4.5882e-03  1.5386e-16  0:00:43  812

 Reversed flow on 95 faces (22.1% area) of pressure-inlet 7.

 Reversed flow on 191 faces (55.7% area) of pressure-outlet 9.
   189  1.8799e-01  7.3450e-03  4.6513e-03  1.5595e-16  0:00:34  811

 Reversed flow on 90 faces (21.5% area) of pressure-inlet 7.

 Reversed flow on 171 faces (49.1% area) of pressure-outlet 9.
   190  2.2029e-01  7.5417e-03  4.7101e-03  1.5566e-16  0:00:27  810

 Reversed flow on 79 faces (21.0% area) of pressure-inlet 7.

 Reversed flow on 164 faces (40.0% area) of pressure-outlet 9.
   191  2.0102e-01  7.7547e-03  4.7742e-03  1.5818e-16  0:00:22  809

 Reversed flow on 73 faces (21.0% area) of pressure-inlet 7.

 Reversed flow on 166 faces (33.8% area) of pressure-outlet 9.
   192  2.0889e-01  7.8072e-03  4.8546e-03  1.5641e-16  0:00:17  808

 Reversed flow on 67 faces (21.5% area) of pressure-inlet 7.

 Reversed flow on 142 faces (26.2% area) of pressure-outlet 9.
   193  1.9439e-01  7.8902e-03  4.9361e-03  1.5575e-16  0:00:14  807

 Reversed flow on 56 faces (20.5% area) of pressure-inlet 7.

 Reversed flow on 170 faces (31.0% area) of pressure-outlet 9.
   194  2.0834e-01  8.0155e-03  5.0173e-03  1.5687e-16  0:00:11  806

 Reversed flow on 52 faces (20.5% area) of pressure-inlet 7.

 Reversed flow on 116 faces (21.3% area) of pressure-outlet 9.
   195  2.4631e-01  8.2309e-03  5.0810e-03  1.5488e-16  0:00:09  805

 Reversed flow on 51 faces (21.3% area) of pressure-inlet 7.

 Reversed flow on 142 faces (19.5% area) of pressure-outlet 9.
   196  3.2360e-01  8.4659e-03  5.1651e-03  1.5606e-16  0:00:07  804

 Reversed flow on 48 faces (21.3% area) of pressure-inlet 7.

 Reversed flow on 106 faces (14.7% area) of pressure-outlet 9.
   197  3.2005e-01  8.4668e-03  5.4081e-03  1.5409e-16  0:00:06  803

 Reversed flow on 44 faces (19.8% area) of pressure-inlet 7.

 Reversed flow on 146 faces (19.4% area) of pressure-outlet 9.
   198  3.1179e-01  8.6193e-03  5.4074e-03  1.5336e-16  0:00:05  802

 Reversed flow on 43 faces (20.6% area) of pressure-inlet 7.

 Reversed flow on 112 faces (12.2% area) of pressure-outlet 9.

  iter  continuity  x-velocity  y-velocity      energy     time/iter
   199  2.4192e-01  8.4978e-03  5.3403e-03  1.5214e-16  0:00:04  801

 Reversed flow on 41 faces (20.6% area) of pressure-inlet 7.

 Reversed flow on 148 faces (18.1% area) of pressure-outlet 9.
   200  2.2646e-01  8.2405e-03  5.3161e-03  1.5160e-16  0:00:03  800

 Reversed flow on 40 faces (20.9% area) of pressure-inlet 7.

 Reversed flow on 114 faces (14.0% area) of pressure-outlet 9.
   201  2.2071e-01  8.0062e-03  5.3392e-03  1.5412e-16  0:00:02  799

 Reversed flow on 38 faces (20.3% area) of pressure-inlet 7.

 Reversed flow on 164 faces (20.3% area) of pressure-outlet 9.
   202  2.1276e-01  7.8974e-03  5.3520e-03  1.5530e-16  0:02:41  798

 Reversed flow on 37 faces (20.5% area) of pressure-inlet 7.

 Reversed flow on 102 faces (11.9% area) of pressure-outlet 9.
   203  2.0964e-01  7.8473e-03  5.2760e-03  1.5733e-16  0:02:09  797

 Reversed flow on 36 faces (20.7% area) of pressure-inlet 7.

 Reversed flow on 163 faces (25.3% area) of pressure-outlet 9.
   204  2.0121e-01  7.7004e-03  5.2670e-03  1.5687e-16  0:01:43  796

 Reversed flow on 35 faces (20.9% area) of pressure-inlet 7.

 Reversed flow on 179 faces (26.0% area) of pressure-outlet 9.
   205  1.9699e-01  7.6146e-03  5.2575e-03  1.5448e-16  0:01:22  795

 Reversed flow on 33 faces (20.1% area) of pressure-inlet 7.

 Reversed flow on 150 faces (27.1% area) of pressure-outlet 9.
   206  1.8960e-01  7.6486e-03  5.1725e-03  1.5633e-16  0:01:06  794

 Reversed flow on 32 faces (20.3% area) of pressure-inlet 7.

 Reversed flow on 168 faces (37.8% area) of pressure-outlet 9.
   207  1.7961e-01  7.6320e-03  5.1162e-03  1.5315e-16  0:00:53  793

 Reversed flow on 31 faces (20.4% area) of pressure-inlet 7.

 Reversed flow on 104 faces (30.3% area) of pressure-outlet 9.
   208  1.9226e-01  7.5520e-03  5.0963e-03  1.4968e-16  0:00:42  792

 Reversed flow on 30 faces (20.5% area) of pressure-inlet 7.

 Reversed flow on 158 faces (41.5% area) of pressure-outlet 9.
   209  2.1344e-01  7.5592e-03  5.0249e-03  1.5153e-16  0:00:34  791

 Reversed flow on 29 faces (20.0% area) of pressure-inlet 7.

 Reversed flow on 151 faces (47.2% area) of pressure-outlet 9.

  iter  continuity  x-velocity  y-velocity      energy     time/iter
   210  1.8109e-01  7.6272e-03  4.8867e-03  1.5140e-16  0:00:27  790

 Reversed flow on 28 faces (20.1% area) of pressure-inlet 7.

 Reversed flow on 143 faces (44.8% area) of pressure-outlet 9.
   211  1.7925e-01  7.5370e-03  4.7914e-03  1.5331e-16  0:00:21  789

 Reversed flow on 28 faces (20.6% area) of pressure-inlet 7.

 Reversed flow on 160 faces (46.9% area) of pressure-outlet 9.
   212  1.8662e-01  7.4909e-03  4.7421e-03  1.5387e-16  0:00:17  788

 Reversed flow on 28 faces (21.2% area) of pressure-inlet 7.

 Reversed flow on 169 faces (52.1% area) of pressure-outlet 9.
   213  1.4180e-01  7.5239e-03  4.6838e-03  1.5224e-16  0:00:14  787

 Reversed flow on 27 faces (20.7% area) of pressure-inlet 7.

 Reversed flow on 186 faces (53.0% area) of pressure-outlet 9.
   214  1.4436e-01  7.4466e-03  4.6283e-03  1.5308e-16  0:00:11  786

 Reversed flow on 27 faces (21.2% area) of pressure-inlet 7.

 Reversed flow on 181 faces (52.6% area) of pressure-outlet 9.
   215  1.4849e-01  7.3905e-03  4.6015e-03  1.5519e-16  0:00:09  785

 Reversed flow on 26 faces (21.2% area) of pressure-inlet 7.

 Reversed flow on 172 faces (53.9% area) of pressure-outlet 9.
   216  1.9230e-01  7.3786e-03  4.5493e-03  1.5435e-16  0:00:07  784

 Reversed flow on 26 faces (21.8% area) of pressure-inlet 7.

 Reversed flow on 184 faces (51.1% area) of pressure-outlet 9.
   217  1.4998e-01  7.4522e-03  4.4756e-03  1.5304e-16  0:00:06  783

 Reversed flow on 25 faces (21.2% area) of pressure-inlet 7.

 Reversed flow on 198 faces (59.3% area) of pressure-outlet 9.
   218  1.4439e-01  7.4530e-03  4.4373e-03  1.5297e-16  0:00:04  782

 Reversed flow on 25 faces (21.8% area) of pressure-inlet 7.

 Reversed flow on 178 faces (57.2% area) of pressure-outlet 9.
   219  1.3675e-01  7.4532e-03  4.4090e-03  1.5269e-16  0:00:04  781

 Reversed flow on 25 faces (22.3% area) of pressure-inlet 7.

 Reversed flow on 202 faces (53.8% area) of pressure-outlet 9.
   220  1.5803e-01  7.4691e-03  4.3738e-03  1.5306e-16  0:00:03  780

 Reversed flow on 24 faces (21.7% area) of pressure-inlet 7.

 Reversed flow on 174 faces (48.2% area) of pressure-outlet 9.

  iter  continuity  x-velocity  y-velocity      energy     time/iter
   221  1.5579e-01  7.5347e-03  4.3137e-03  1.5484e-16  0:00:02  779

 Reversed flow on 24 faces (22.3% area) of pressure-inlet 7.

 Reversed flow on 178 faces (44.3% area) of pressure-outlet 9.
   222  1.3444e-01  7.6048e-03  4.2627e-03  1.5140e-16  0:00:02  778

 Reversed flow on 24 faces (22.9% area) of pressure-inlet 7.

 Reversed flow on 122 faces (33.1% area) of pressure-outlet 9.
   223  1.2755e-01  7.6275e-03  4.2520e-03  1.5250e-16  0:02:37  777

 Reversed flow on 23 faces (22.2% area) of pressure-inlet 7.

 Reversed flow on 193 faces (44.5% area) of pressure-outlet 9.
   224  1.2880e-01  7.6522e-03  4.2608e-03  1.5448e-16  0:02:05  776

 Reversed flow on 23 faces (22.8% area) of pressure-inlet 7.

 Reversed flow on 130 faces (28.3% area) of pressure-outlet 9.
   225  1.9180e-01  7.6878e-03  4.2427e-03  1.5464e-16  0:01:40  775

 Reversed flow on 23 faces (23.4% area) of pressure-inlet 7.

 Reversed flow on 168 faces (29.1% area) of pressure-outlet 9.
   226  1.3067e-01  7.7182e-03  4.2474e-03  1.5336e-16  0:01:20  774

 Reversed flow on 23 faces (24.0% area) of pressure-inlet 7.

 Reversed flow on 105 faces (16.5% area) of pressure-outlet 9.
   227  1.2679e-01  7.7200e-03  4.2088e-03  1.5309e-16  0:01:04  773

 Reversed flow on 23 faces (24.0% area) of pressure-inlet 7.

 Reversed flow on 125 faces (15.1% area) of pressure-outlet 9.
   228  1.2320e-01  7.6512e-03  4.2101e-03  1.5461e-16  0:00:51  772

 Reversed flow on 26 faces (26.3% area) of pressure-inlet 7.

 Reversed flow on 103 faces (12.4% area) of pressure-outlet 9.
   229  1.3004e-01  7.5912e-03  4.2074e-03  1.5162e-16  0:00:41  771

 Reversed flow on 28 faces (28.3% area) of pressure-inlet 7.

 Reversed flow on 88 faces (11.0% area) of pressure-outlet 9.
   230  1.8920e-01  7.5422e-03  4.1855e-03  1.5419e-16  0:00:33  770

 Reversed flow on 29 faces (28.6% area) of pressure-inlet 7.

 Reversed flow on 115 faces (12.0% area) of pressure-outlet 9.
   231  1.8242e-01  7.4783e-03  4.1955e-03  1.5290e-16  0:00:26  769

 Reversed flow on 35 faces (33.1% area) of pressure-inlet 7.

 Reversed flow on 85 faces (10.3% area) of pressure-outlet 9.

  iter  continuity  x-velocity  y-velocity      energy     time/iter
   232  1.3831e-01  7.4025e-03  4.2283e-03  1.4977e-16  0:00:21  768

 Reversed flow on 38 faces (36.0% area) of pressure-inlet 7.

 Reversed flow on 82 faces (10.1% area) of pressure-outlet 9.
   233  1.3507e-01  7.2889e-03  4.2711e-03  1.5290e-16  0:00:17  767

 Reversed flow on 41 faces (37.9% area) of pressure-inlet 7.

 Reversed flow on 93 faces (10.1% area) of pressure-outlet 9.
   234  1.3798e-01  7.1628e-03  4.3099e-03  1.5464e-16  0:00:13  766

 Reversed flow on 44 faces (40.1% area) of pressure-inlet 7.

 Reversed flow on 97 faces (25.4% area) of pressure-outlet 9.
   235  1.6671e-01  7.0582e-03  4.3478e-03  1.5595e-16  0:00:11  765

 Reversed flow on 48 faces (43.4% area) of pressure-inlet 7.

 Reversed flow on 90 faces (17.1% area) of pressure-outlet 9.
   236  1.5810e-01  6.9704e-03  4.3553e-03  1.5057e-16  0:00:08  764

 Reversed flow on 47 faces (40.0% area) of pressure-inlet 7.

 Reversed flow on 116 faces (26.4% area) of pressure-outlet 9.
   237  1.7251e-01  6.8669e-03  4.3622e-03  1.5292e-16  0:00:07  763

 Reversed flow on 51 faces (43.8% area) of pressure-inlet 7.

 Reversed flow on 108 faces (26.9% area) of pressure-outlet 9.
   238  1.5697e-01  6.7624e-03  4.3590e-03  1.5384e-16  0:00:05  762

 Reversed flow on 56 faces (48.0% area) of pressure-inlet 7.

 Reversed flow on 107 faces (26.4% area) of pressure-outlet 9.
   239  1.6143e-01  6.6579e-03  4.3624e-03  1.5279e-16  0:00:04  761

 Reversed flow on 59 faces (49.0% area) of pressure-inlet 7.

 Reversed flow on 132 faces (30.4% area) of pressure-outlet 9.
   240  1.6320e-01  6.5697e-03  4.3494e-03  1.5347e-16  0:00:03  760

 Reversed flow on 60 faces (47.3% area) of pressure-inlet 7.

 Reversed flow on 125 faces (36.5% area) of pressure-outlet 9.
   241  1.6192e-01  6.4845e-03  4.3231e-03  1.5364e-16  0:00:03  759

 Reversed flow on 64 faces (47.2% area) of pressure-inlet 7.

 Reversed flow on 199 faces (48.7% area) of pressure-outlet 9.
   242  1.7398e-01  6.4337e-03  4.2755e-03  1.5492e-16  0:00:02  758

 Reversed flow on 69 faces (48.5% area) of pressure-inlet 7.

 Reversed flow on 183 faces (47.7% area) of pressure-outlet 9.

  iter  continuity  x-velocity  y-velocity      energy     time/iter
   243  1.9426e-01  6.4118e-03  4.2033e-03  1.5445e-16  0:00:02  757

 Reversed flow on 76 faces (51.0% area) of pressure-inlet 7.

 Reversed flow on 181 faces (49.3% area) of pressure-outlet 9.
   244  1.7465e-01  6.3754e-03  4.1207e-03  1.5438e-16  0:02:33  756

 Reversed flow on 82 faces (51.0% area) of pressure-inlet 7.

 Reversed flow on 178 faces (50.0% area) of pressure-outlet 9.
   245  1.6364e-01  6.3280e-03  4.0278e-03  1.5180e-16  0:02:02  755

 Reversed flow on 97 faces (54.6% area) of pressure-inlet 7.

 Reversed flow on 170 faces (50.4% area) of pressure-outlet 9.
   246  1.4671e-01  6.2817e-03  3.9286e-03  1.5165e-16  0:01:37  754

 Reversed flow on 125 faces (52.3% area) of pressure-inlet 7.

 Reversed flow on 183 faces (52.2% area) of pressure-outlet 9.
   247  1.3515e-01  6.2307e-03  3.8340e-03  1.5253e-16  0:01:18  753

 Reversed flow on 125 faces (50.9% area) of pressure-inlet 7.

 Reversed flow on 185 faces (53.3% area) of pressure-outlet 9.
   248  1.3282e-01  6.2196e-03  3.7612e-03  1.5057e-16  0:01:02  752

 Reversed flow on 124 faces (49.7% area) of pressure-inlet 7.

 Reversed flow on 166 faces (53.2% area) of pressure-outlet 9.
   249  1.3858e-01  6.2308e-03  3.6877e-03  1.5148e-16  0:00:50  751

 Reversed flow on 112 faces (36.6% area) of pressure-inlet 7.

 Reversed flow on 177 faces (53.8% area) of pressure-outlet 9.
   250  1.4496e-01  6.2342e-03  3.6096e-03  1.5186e-16  0:00:40  750

 Reversed flow on 108 faces (31.9% area) of pressure-inlet 7.

 Reversed flow on 146 faces (51.1% area) of pressure-outlet 9.
   251  1.3517e-01  6.2160e-03  3.5533e-03  1.4919e-16  0:00:32  749

 Reversed flow on 106 faces (30.1% area) of pressure-inlet 7.

 Reversed flow on 172 faces (55.7% area) of pressure-outlet 9.
   252  1.3602e-01  6.1762e-03  3.4923e-03  1.4782e-16  0:00:25  748

 Reversed flow on 105 faces (29.3% area) of pressure-inlet 7.

 Reversed flow on 155 faces (55.3% area) of pressure-outlet 9.
   253  1.3520e-01  6.1587e-03  3.4319e-03  1.4934e-16  0:00:20  747

 Reversed flow on 104 faces (28.5% area) of pressure-inlet 7.

 Reversed flow on 188 faces (58.3% area) of pressure-outlet 9.

  iter  continuity  x-velocity  y-velocity      energy     time/iter
   254  1.3023e-01  6.1392e-03  3.3983e-03  1.4687e-16  0:00:16  746

 Reversed flow on 103 faces (27.7% area) of pressure-inlet 7.

 Reversed flow on 187 faces (58.8% area) of pressure-outlet 9.
   255  1.3126e-01  6.0683e-03  3.3653e-03  1.4736e-16  0:00:13  745

 Reversed flow on 102 faces (26.9% area) of pressure-inlet 7.

 Reversed flow on 187 faces (60.0% area) of pressure-outlet 9.
   256  1.2867e-01  5.9896e-03  3.3361e-03  1.4947e-16  0:00:10  744

 Reversed flow on 101 faces (26.2% area) of pressure-inlet 7.

 Reversed flow on 175 faces (60.3% area) of pressure-outlet 9.
   257  1.2635e-01  5.9554e-03  3.3128e-03  1.5053e-16  0:00:08  743

 Reversed flow on 100 faces (25.5% area) of pressure-inlet 7.

 Reversed flow on 175 faces (60.4% area) of pressure-outlet 9.
   258  1.2333e-01  5.8895e-03  3.2917e-03  1.5002e-16  0:00:07  742

 Reversed flow on 99 faces (24.7% area) of pressure-inlet 7.

 Reversed flow on 171 faces (59.9% area) of pressure-outlet 9.
   259  1.2375e-01  5.7955e-03  3.2749e-03  1.5175e-16  0:00:05  741

 Reversed flow on 98 faces (24.1% area) of pressure-inlet 7.

 Reversed flow on 157 faces (60.9% area) of pressure-outlet 9.
   260  1.2700e-01  5.7408e-03  3.2469e-03  1.4959e-16  0:00:04  740

 Reversed flow on 97 faces (23.4% area) of pressure-inlet 7.

 Reversed flow on 174 faces (61.5% area) of pressure-outlet 9.
   261  1.2523e-01  5.6694e-03  3.2608e-03  1.5033e-16  0:00:03  739

 Reversed flow on 97 faces (23.4% area) of pressure-inlet 7.

 Reversed flow on 193 faces (63.7% area) of pressure-outlet 9.
   262  1.2378e-01  5.5884e-03  3.2524e-03  1.4980e-16  0:00:03  738

 Reversed flow on 96 faces (22.7% area) of pressure-inlet 7.

 Reversed flow on 190 faces (65.6% area) of pressure-outlet 9.
   263  1.2212e-01  5.5128e-03  3.2601e-03  1.5115e-16  0:00:02  737

 Reversed flow on 95 faces (22.1% area) of pressure-inlet 7.

 Reversed flow on 154 faces (63.3% area) of pressure-outlet 9.
   264  1.2180e-01  5.4685e-03  3.2512e-03  1.5140e-16  0:00:02  736

 Reversed flow on 95 faces (22.1% area) of pressure-inlet 7.

 Reversed flow on 184 faces (67.5% area) of pressure-outlet 9.

  iter  continuity  x-velocity  y-velocity      energy     time/iter
   265  1.2164e-01  5.4098e-03  3.2349e-03  1.5308e-16  0:00:01  735

 Reversed flow on 94 faces (21.5% area) of pressure-inlet 7.

 Reversed flow on 191 faces (69.7% area) of pressure-outlet 9.
   266  1.2548e-01  5.3504e-03  3.2172e-03  1.5338e-16  0:02:28  734

 Reversed flow on 94 faces (21.5% area) of pressure-inlet 7.

 Reversed flow on 202 faces (71.7% area) of pressure-outlet 9.
   267  1.2458e-01  5.3309e-03  3.2069e-03  1.5240e-16  0:01:58  733

 Reversed flow on 94 faces (21.5% area) of pressure-inlet 7.

 Reversed flow on 175 faces (69.2% area) of pressure-outlet 9.
   268  1.2576e-01  5.2861e-03  3.2019e-03  1.5223e-16  0:01:34  732

 Reversed flow on 93 faces (20.8% area) of pressure-inlet 7.

 Reversed flow on 170 faces (68.2% area) of pressure-outlet 9.
   269  1.3081e-01  5.2438e-03  3.2038e-03  1.5266e-16  0:01:15  731

 Reversed flow on 93 faces (20.8% area) of pressure-inlet 7.

 Reversed flow on 187 faces (72.7% area) of pressure-outlet 9.
   270  1.2844e-01  5.2526e-03  3.2114e-03  1.4970e-16  0:01:00  730

 Reversed flow on 93 faces (20.8% area) of pressure-inlet 7.

 Reversed flow on 204 faces (74.3% area) of pressure-outlet 9.
   271  1.2870e-01  5.2628e-03  3.2195e-03  1.5015e-16  0:00:48  729

 Reversed flow on 93 faces (20.8% area) of pressure-inlet 7.

 Reversed flow on 200 faces (76.7% area) of pressure-outlet 9.
   272  1.3612e-01  5.2899e-03  3.2305e-03  1.5113e-16  0:00:38  728

 Reversed flow on 95 faces (22.1% area) of pressure-inlet 7.

 Reversed flow on 201 faces (78.2% area) of pressure-outlet 9.
   273  1.2946e-01  5.3828e-03  3.2653e-03  1.4963e-16  0:00:31  727

 Reversed flow on 93 faces (20.8% area) of pressure-inlet 7.

 Reversed flow on 232 faces (82.2% area) of pressure-outlet 9.
   274  1.2481e-01  5.4603e-03  3.2897e-03  1.4811e-16  0:00:25  726

 Reversed flow on 93 faces (20.8% area) of pressure-inlet 7.

 Reversed flow on 236 faces (82.6% area) of pressure-outlet 9.
   275  1.2251e-01  5.5654e-03  3.3138e-03  1.5008e-16  0:00:20  725

 Reversed flow on 94 faces (21.5% area) of pressure-inlet 7.

 Reversed flow on 212 faces (79.1% area) of pressure-outlet 9.

  iter  continuity  x-velocity  y-velocity      energy     time/iter
   276  1.2087e-01  5.7083e-03  3.3641e-03  1.4791e-16  0:00:16  724

 Reversed flow on 94 faces (21.5% area) of pressure-inlet 7.

 Reversed flow on 209 faces (78.0% area) of pressure-outlet 9.
   277  1.2342e-01  5.8032e-03  3.3951e-03  1.4684e-16  0:00:13  723

 Reversed flow on 94 faces (21.5% area) of pressure-inlet 7.

 Reversed flow on 236 faces (77.1% area) of pressure-outlet 9.
   278  1.2341e-01  5.9359e-03  3.4641e-03  1.4999e-16  0:00:10  722

 Reversed flow on 94 faces (21.5% area) of pressure-inlet 7.

 Reversed flow on 202 faces (71.9% area) of pressure-outlet 9.
   279  1.2118e-01  6.0557e-03  3.5234e-03  1.5012e-16  0:00:08  721

 Reversed flow on 94 faces (21.5% area) of pressure-inlet 7.

 Reversed flow on 188 faces (66.0% area) of pressure-outlet 9.
   280  1.2387e-01  6.1503e-03  3.5737e-03  1.4773e-16  0:00:06  720

 Reversed flow on 96 faces (22.7% area) of pressure-inlet 7.

 Reversed flow on 231 faces (70.4% area) of pressure-outlet 9.
   281  1.2631e-01  6.3076e-03  3.6579e-03  1.4820e-16  0:00:05  719

 Reversed flow on 95 faces (22.1% area) of pressure-inlet 7.

 Reversed flow on 204 faces (65.0% area) of pressure-outlet 9.
   282  1.2702e-01  6.3917e-03  3.7291e-03  1.4945e-16  0:00:04  718

 Reversed flow on 96 faces (22.8% area) of pressure-inlet 7.

 Reversed flow on 194 faces (61.6% area) of pressure-outlet 9.
   283  1.2463e-01  6.5048e-03  3.7934e-03  1.4888e-16  0:00:03  717

 Reversed flow on 96 faces (22.8% area) of pressure-inlet 7.

 Reversed flow on 210 faces (52.0% area) of pressure-outlet 9.
   284  1.3092e-01  6.6022e-03  3.8590e-03  1.4958e-16  0:00:03  716

 Reversed flow on 96 faces (22.8% area) of pressure-inlet 7.

 Reversed flow on 183 faces (45.6% area) of pressure-outlet 9.
   285  1.2460e-01  6.6673e-03  3.9263e-03  1.4793e-16  0:00:02  715

 Reversed flow on 95 faces (22.1% area) of pressure-inlet 7.

 Reversed flow on 193 faces (46.7% area) of pressure-outlet 9.
   286  1.2935e-01  6.7704e-03  3.9882e-03  1.5087e-16  0:00:02  714

 Reversed flow on 96 faces (22.7% area) of pressure-inlet 7.

 Reversed flow on 187 faces (40.0% area) of pressure-outlet 9.

  iter  continuity  x-velocity  y-velocity      energy     time/iter
   287  1.2558e-01  6.8265e-03  4.0416e-03  1.5088e-16  0:00:01  713

 Reversed flow on 95 faces (22.1% area) of pressure-inlet 7.

 Reversed flow on 173 faces (41.6% area) of pressure-outlet 9.
   288  1.2965e-01  6.9028e-03  4.0884e-03  1.5170e-16  0:02:23  712

 Reversed flow on 96 faces (22.7% area) of pressure-inlet 7.

 Reversed flow on 192 faces (40.6% area) of pressure-outlet 9.
   289  1.3467e-01  6.9642e-03  4.1234e-03  1.5025e-16  0:01:55  711

 Reversed flow on 96 faces (22.8% area) of pressure-inlet 7.

 Reversed flow on 186 faces (34.9% area) of pressure-outlet 9.
   290  1.3218e-01  7.0278e-03  4.1597e-03  1.5024e-16  0:01:32  710

 Reversed flow on 95 faces (22.1% area) of pressure-inlet 7.

 Reversed flow on 193 faces (39.8% area) of pressure-outlet 9.
   291  1.4527e-01  7.0309e-03  4.1811e-03  1.5328e-16  0:01:13  709

 Reversed flow on 95 faces (22.1% area) of pressure-inlet 7.

 Reversed flow on 168 faces (30.6% area) of pressure-outlet 9.
   292  1.4053e-01  7.1066e-03  4.2252e-03  1.5703e-16  0:00:58  708

 Reversed flow on 93 faces (20.8% area) of pressure-inlet 7.

 Reversed flow on 169 faces (35.9% area) of pressure-outlet 9.
   293  1.3687e-01  7.0711e-03  4.2411e-03  1.5500e-16  0:00:47  707

 Reversed flow on 95 faces (22.1% area) of pressure-inlet 7.

 Reversed flow on 176 faces (29.9% area) of pressure-outlet 9.
   294  1.2767e-01  7.0697e-03  4.2541e-03  1.5430e-16  0:00:37  706

 Reversed flow on 93 faces (20.8% area) of pressure-inlet 7.

 Reversed flow on 174 faces (29.4% area) of pressure-outlet 9.
   295  1.3848e-01  7.0808e-03  4.2665e-03  1.5208e-16  0:00:30  705

 Reversed flow on 92 faces (20.3% area) of pressure-inlet 7.

 Reversed flow on 148 faces (23.7% area) of pressure-outlet 9.
   296  1.2905e-01  7.0425e-03  4.2941e-03  1.5296e-16  0:00:24  704

 Reversed flow on 93 faces (20.9% area) of pressure-inlet 7.

 Reversed flow on 171 faces (26.0% area) of pressure-outlet 9.
   297  1.3541e-01  7.0565e-03  4.2935e-03  1.5342e-16  0:00:19  703

 Reversed flow on 94 faces (21.6% area) of pressure-inlet 7.

 Reversed flow on 141 faces (19.6% area) of pressure-outlet 9.

  iter  continuity  x-velocity  y-velocity      energy     time/iter
   298  1.3021e-01  7.0519e-03  4.3162e-03  1.5079e-16  0:00:15  702

 Reversed flow on 92 faces (20.3% area) of pressure-inlet 7.

 Reversed flow on 179 faces (25.7% area) of pressure-outlet 9.
   299  1.3389e-01  7.0141e-03  4.3424e-03  1.5157e-16  0:00:12  701

 Reversed flow on 91 faces (19.7% area) of pressure-inlet 7.

 Reversed flow on 150 faces (20.2% area) of pressure-outlet 9.
   300  1.3243e-01  6.9957e-03  4.3567e-03  1.5103e-16  0:00:10  700

 Reversed flow on 91 faces (19.7% area) of pressure-inlet 7.

 Reversed flow on 173 faces (23.3% area) of pressure-outlet 9.
   301  1.4061e-01  7.0132e-03  4.3820e-03  1.5025e-16  0:00:08  699

 Reversed flow on 90 faces (19.2% area) of pressure-inlet 7.

 Reversed flow on 137 faces (17.9% area) of pressure-outlet 9.
   302  1.3912e-01  6.9209e-03  4.4113e-03  1.4984e-16  0:00:06  698

 Reversed flow on 88 faces (18.0% area) of pressure-inlet 7.

 Reversed flow on 164 faces (18.6% area) of pressure-outlet 9.
   303  1.6870e-01  6.9366e-03  4.4374e-03  1.4992e-16  0:00:05  697

 Reversed flow on 88 faces (18.1% area) of pressure-inlet 7.

 Reversed flow on 115 faces (14.0% area) of pressure-outlet 9.
   304  1.4859e-01  6.9111e-03  4.4581e-03  1.5128e-16  0:00:04  696

 Reversed flow on 88 faces (18.2% area) of pressure-inlet 7.

 Reversed flow on 160 faces (17.4% area) of pressure-outlet 9.
   305  1.3883e-01  6.8632e-03  4.4868e-03  1.5037e-16  0:00:03  695

 Reversed flow on 88 faces (18.2% area) of pressure-inlet 7.

 Reversed flow on 133 faces (12.8% area) of pressure-outlet 9.
   306  1.6999e-01  6.7470e-03  4.5118e-03  1.5146e-16  0:00:03  694

 Reversed flow on 86 faces (17.1% area) of pressure-inlet 7.

 Reversed flow on 161 faces (17.1% area) of pressure-outlet 9.
   307  1.8513e-01  6.7620e-03  4.5437e-03  1.5127e-16  0:00:02  693

 Reversed flow on 85 faces (16.6% area) of pressure-inlet 7.

 Reversed flow on 124 faces (12.6% area) of pressure-outlet 9.
   308  1.5701e-01  6.6817e-03  4.5710e-03  1.5064e-16  0:02:20  692

 Reversed flow on 85 faces (16.5% area) of pressure-inlet 7.

 Reversed flow on 160 faces (15.2% area) of pressure-outlet 9.

  iter  continuity  x-velocity  y-velocity      energy     time/iter
   309  1.6579e-01  6.5764e-03  4.6200e-03  1.4893e-16  0:01:52  691

 Reversed flow on 84 faces (16.1% area) of pressure-inlet 7.

 Reversed flow on 137 faces (13.3% area) of pressure-outlet 9.
   310  1.5707e-01  6.4965e-03  4.6628e-03  1.4966e-16  0:01:29  690

 Reversed flow on 84 faces (16.0% area) of pressure-inlet 7.

 Reversed flow on 165 faces (16.9% area) of pressure-outlet 9.
   311  1.4555e-01  6.4650e-03  4.6886e-03  1.5134e-16  0:01:11  689

 Reversed flow on 84 faces (16.1% area) of pressure-inlet 7.

 Reversed flow on 131 faces (12.3% area) of pressure-outlet 9.
   312  1.3952e-01  6.3822e-03  4.7327e-03  1.4824e-16  0:00:57  688

 Reversed flow on 81 faces (14.7% area) of pressure-inlet 7.

 Reversed flow on 181 faces (17.6% area) of pressure-outlet 9.
   313  1.3980e-01  6.2932e-03  4.7807e-03  1.4828e-16  0:00:46  687

 Reversed flow on 81 faces (14.7% area) of pressure-inlet 7.

 Reversed flow on 186 faces (19.6% area) of pressure-outlet 9.
   314  1.5033e-01  6.2938e-03  4.7885e-03  1.4684e-16  0:00:36  686

 Reversed flow on 80 faces (14.2% area) of pressure-inlet 7.

 Reversed flow on 132 faces (12.4% area) of pressure-outlet 9.
   315  1.5002e-01  6.2812e-03  4.7852e-03  1.4924e-16  0:00:29  685

 Reversed flow on 79 faces (13.8% area) of pressure-inlet 7.

 Reversed flow on 186 faces (21.9% area) of pressure-outlet 9.
   316  1.4813e-01  6.2521e-03  4.7886e-03  1.5080e-16  0:00:23  684

 Reversed flow on 78 faces (13.4% area) of pressure-inlet 7.

 Reversed flow on 124 faces (16.0% area) of pressure-outlet 9.
   317  1.6335e-01  6.2119e-03  4.7764e-03  1.5641e-16  0:00:19  683

 Reversed flow on 78 faces (13.4% area) of pressure-inlet 7.

 Reversed flow on 134 faces (18.1% area) of pressure-outlet 9.
   318  1.6542e-01  6.2265e-03  4.7672e-03  1.5544e-16  0:00:15  682

 Reversed flow on 77 faces (13.0% area) of pressure-inlet 7.

 Reversed flow on 167 faces (22.3% area) of pressure-outlet 9.
   319  1.6395e-01  6.2530e-03  4.7805e-03  1.5215e-16  0:00:12  681

 Reversed flow on 76 faces (12.6% area) of pressure-inlet 7.

 Reversed flow on 138 faces (23.9% area) of pressure-outlet 9.

  iter  continuity  x-velocity  y-velocity      energy     time/iter
   320  1.6952e-01  6.3124e-03  4.7732e-03  1.5261e-16  0:00:09  680

 Reversed flow on 76 faces (12.6% area) of pressure-inlet 7.

 Reversed flow on 163 faces (25.3% area) of pressure-outlet 9.
   321  1.5485e-01  6.3037e-03  4.7934e-03  1.5203e-16  0:00:08  679

 Reversed flow on 75 faces (12.2% area) of pressure-inlet 7.

 Reversed flow on 167 faces (27.5% area) of pressure-outlet 9.
   322  1.5578e-01  6.3945e-03  4.7810e-03  1.5373e-16  0:00:06  678

 Reversed flow on 74 faces (11.9% area) of pressure-inlet 7.

 Reversed flow on 151 faces (28.5% area) of pressure-outlet 9.
   323  1.4862e-01  6.3827e-03  4.7908e-03  1.5344e-16  0:00:05  677

 Reversed flow on 73 faces (11.5% area) of pressure-inlet 7.

 Reversed flow on 162 faces (30.2% area) of pressure-outlet 9.
   324  1.5393e-01  6.3631e-03  4.7901e-03  1.5151e-16  0:00:04  676

 Reversed flow on 73 faces (11.5% area) of pressure-inlet 7.

 Reversed flow on 149 faces (27.1% area) of pressure-outlet 9.
   325  1.5324e-01  6.4223e-03  4.7817e-03  1.5219e-16  0:00:03  675

 Reversed flow on 72 faces (11.2% area) of pressure-inlet 7.

 Reversed flow on 152 faces (34.8% area) of pressure-outlet 9.
   326  1.5999e-01  6.4918e-03  4.7526e-03  1.5273e-16  0:00:02  674

 Reversed flow on 71 faces (10.8% area) of pressure-inlet 7.

 Reversed flow on 175 faces (33.8% area) of pressure-outlet 9.
   327  1.5130e-01  6.5984e-03  4.7393e-03  1.5384e-16  0:00:02  673

 Reversed flow on 71 faces (10.8% area) of pressure-inlet 7.

 Reversed flow on 179 faces (40.4% area) of pressure-outlet 9.
   328  1.6450e-01  6.6955e-03  4.7150e-03  1.5069e-16  0:00:02  672

 Reversed flow on 70 faces (10.5% area) of pressure-inlet 7.

 Reversed flow on 154 faces (37.7% area) of pressure-outlet 9.
   329  1.5527e-01  6.8160e-03  4.6899e-03  1.5188e-16  0:00:01  671

 Reversed flow on 69 faces (10.2% area) of pressure-inlet 7.

 Reversed flow on 164 faces (39.4% area) of pressure-outlet 9.
   330  1.5155e-01  6.9428e-03  4.6740e-03  1.5022e-16  0:02:15  670

 Reversed flow on 68 faces (9.9% area) of pressure-inlet 7.

 Reversed flow on 180 faces (41.5% area) of pressure-outlet 9.

  iter  continuity  x-velocity  y-velocity      energy     time/iter
   331  1.5028e-01  7.0649e-03  4.6786e-03  1.5044e-16  0:01:48  669

 Reversed flow on 68 faces (9.9% area) of pressure-inlet 7.

 Reversed flow on 155 faces (39.1% area) of pressure-outlet 9.
   332  1.5584e-01  7.1640e-03  4.6531e-03  1.4915e-16  0:01:26  668

 Reversed flow on 67 faces (9.6% area) of pressure-inlet 7.

 Reversed flow on 165 faces (42.7% area) of pressure-outlet 9.
   333  1.6737e-01  7.2929e-03  4.6197e-03  1.5058e-16  0:01:09  667

 Reversed flow on 67 faces (9.6% area) of pressure-inlet 7.

 Reversed flow on 174 faces (46.7% area) of pressure-outlet 9.
   334  1.4968e-01  7.3554e-03  4.6259e-03  1.5190e-16  0:00:55  666

 Reversed flow on 66 faces (9.3% area) of pressure-inlet 7.

 Reversed flow on 180 faces (46.4% area) of pressure-outlet 9.
   335  1.5158e-01  7.4193e-03  4.6598e-03  1.5377e-16  0:00:44  665

 Reversed flow on 66 faces (9.3% area) of pressure-inlet 7.

 Reversed flow on 181 faces (52.0% area) of pressure-outlet 9.
   336  1.5331e-01  7.4369e-03  4.7194e-03  1.5189e-16  0:00:35  664

 Reversed flow on 65 faces (9.0% area) of pressure-inlet 7.

 Reversed flow on 185 faces (51.0% area) of pressure-outlet 9.
   337  1.5175e-01  7.4850e-03  4.7940e-03  1.5279e-16  0:00:28  663

 Reversed flow on 65 faces (9.0% area) of pressure-inlet 7.

 Reversed flow on 160 faces (48.1% area) of pressure-outlet 9.
   338  1.5081e-01  7.5273e-03  4.8700e-03  1.5411e-16  0:00:22  662

 Reversed flow on 64 faces (8.7% area) of pressure-inlet 7.

 Reversed flow on 196 faces (50.4% area) of pressure-outlet 9.
   339  1.5225e-01  7.5986e-03  4.9351e-03  1.5529e-16  0:00:18  661

 Reversed flow on 64 faces (8.7% area) of pressure-inlet 7.

 Reversed flow on 143 faces (43.9% area) of pressure-outlet 9.
   340  1.6214e-01  7.6278e-03  4.9901e-03  1.5250e-16  0:00:14  660

 Reversed flow on 63 faces (8.4% area) of pressure-inlet 7.

 Reversed flow on 174 faces (40.3% area) of pressure-outlet 9.
   341  1.4770e-01  7.7241e-03  5.0247e-03  1.5319e-16  0:00:11  659

 Reversed flow on 63 faces (8.4% area) of pressure-inlet 7.

 Reversed flow on 101 faces (32.2% area) of pressure-outlet 9.

  iter  continuity  x-velocity  y-velocity      energy     time/iter
   342  1.5497e-01  7.7487e-03  5.0591e-03  1.5340e-16  0:00:09  658

 Reversed flow on 63 faces (8.4% area) of pressure-inlet 7.

 Reversed flow on 128 faces (24.7% area) of pressure-outlet 9.
   343  1.6886e-01  7.7971e-03  5.0847e-03  1.5130e-16  0:00:07  657

 Reversed flow on 62 faces (8.1% area) of pressure-inlet 7.

 Reversed flow on 97 faces (18.7% area) of pressure-outlet 9.
   344  1.5462e-01  7.8255e-03  5.1158e-03  1.5201e-16  0:00:06  656

 Reversed flow on 62 faces (8.1% area) of pressure-inlet 7.

 Reversed flow on 122 faces (16.5% area) of pressure-outlet 9.
   345  1.5071e-01  7.7907e-03  5.1767e-03  1.5157e-16  0:00:05  655

 Reversed flow on 62 faces (8.1% area) of pressure-inlet 7.

 Reversed flow on 98 faces (14.5% area) of pressure-outlet 9.
   346  1.3326e-01  7.7307e-03  5.2257e-03  1.5262e-16  0:00:04  654

 Reversed flow on 62 faces (8.1% area) of pressure-inlet 7.

 Reversed flow on 116 faces (15.5% area) of pressure-outlet 9.
   347  1.4891e-01  7.6579e-03  5.2577e-03  1.5650e-16  0:00:03  653

 Reversed flow on 61 faces (7.9% area) of pressure-inlet 7.

 Reversed flow on 93 faces (12.9% area) of pressure-outlet 9.
   348  1.4058e-01  7.5655e-03  5.2850e-03  1.5233e-16  0:00:02  652

 Reversed flow on 61 faces (7.9% area) of pressure-inlet 7.

 Reversed flow on 111 faces (13.5% area) of pressure-outlet 9.
   349  1.4232e-01  7.4939e-03  5.2894e-03  1.5152e-16  0:00:02  651

 Reversed flow on 61 faces (7.9% area) of pressure-inlet 7.

 Reversed flow on 100 faces (13.2% area) of pressure-outlet 9.
   350  1.4440e-01  7.4337e-03  5.2817e-03  1.5039e-16  0:02:12  650

 Reversed flow on 61 faces (7.9% area) of pressure-inlet 7.

 Reversed flow on 134 faces (14.4% area) of pressure-outlet 9.
   351  1.4818e-01  7.3652e-03  5.2785e-03  1.5394e-16  0:01:45  649

 Reversed flow on 61 faces (7.9% area) of pressure-inlet 7.

 Reversed flow on 105 faces (12.8% area) of pressure-outlet 9.
   352  1.6587e-01  7.3644e-03  5.2772e-03  1.5147e-16  0:01:24  648

 Reversed flow on 61 faces (7.9% area) of pressure-inlet 7.

 Reversed flow on 136 faces (13.6% area) of pressure-outlet 9.

  iter  continuity  x-velocity  y-velocity      energy     time/iter
   353  1.4923e-01  7.3377e-03  5.2756e-03  1.5082e-16  0:01:07  647

 Reversed flow on 61 faces (7.9% area) of pressure-inlet 7.

 Reversed flow on 101 faces (12.6% area) of pressure-outlet 9.
   354  1.4161e-01  7.2696e-03  5.2579e-03  1.5296e-16  0:00:54  646

 Reversed flow on 60 faces (7.6% area) of pressure-inlet 7.

 Reversed flow on 147 faces (14.1% area) of pressure-outlet 9.
   355  1.6085e-01  7.2663e-03  5.2280e-03  1.5266e-16  0:00:43  645

 Reversed flow on 60 faces (7.6% area) of pressure-inlet 7.

 Reversed flow on 105 faces (13.4% area) of pressure-outlet 9.
   356  1.4519e-01  7.2522e-03  5.2113e-03  1.5103e-16  0:00:34  644

 Reversed flow on 60 faces (7.6% area) of pressure-inlet 7.

 Reversed flow on 152 faces (14.8% area) of pressure-outlet 9.
   357  1.4013e-01  7.1778e-03  5.1839e-03  1.4946e-16  0:00:27  643

 Reversed flow on 60 faces (7.6% area) of pressure-inlet 7.

 Reversed flow on 115 faces (15.5% area) of pressure-outlet 9.
   358  1.4896e-01  7.1481e-03  5.1355e-03  1.5080e-16  0:00:22  642

 Reversed flow on 60 faces (7.6% area) of pressure-inlet 7.

 Reversed flow on 159 faces (16.7% area) of pressure-outlet 9.
   359  1.6830e-01  7.1860e-03  5.0950e-03  1.5136e-16  0:00:17  641

 Reversed flow on 60 faces (7.6% area) of pressure-inlet 7.

 Reversed flow on 160 faces (23.5% area) of pressure-outlet 9.
   360  1.6009e-01  7.2002e-03  5.0645e-03  1.5054e-16  0:00:14  640

 Reversed flow on 60 faces (7.6% area) of pressure-inlet 7.

 Reversed flow on 169 faces (26.0% area) of pressure-outlet 9.
   361  1.6012e-01  7.1671e-03  5.0094e-03  1.4890e-16  0:00:11  639

 Reversed flow on 60 faces (7.6% area) of pressure-inlet 7.

 Reversed flow on 185 faces (34.0% area) of pressure-outlet 9.
   362  1.6150e-01  7.1860e-03  4.9717e-03  1.4925e-16  0:00:09  638

 Reversed flow on 61 faces (7.9% area) of pressure-inlet 7.

 Reversed flow on 160 faces (37.5% area) of pressure-outlet 9.
   363  1.7691e-01  7.2463e-03  4.9670e-03  1.4967e-16  0:00:07  637

 Reversed flow on 60 faces (7.6% area) of pressure-inlet 7.

 Reversed flow on 153 faces (38.4% area) of pressure-outlet 9.

  iter  continuity  x-velocity  y-velocity      energy     time/iter
   364  1.7229e-01  7.2816e-03  4.9582e-03  1.5053e-16  0:00:06  636

 Reversed flow on 60 faces (7.6% area) of pressure-inlet 7.

 Reversed flow on 140 faces (42.8% area) of pressure-outlet 9.
   365  1.5591e-01  7.2929e-03  4.9251e-03  1.4918e-16  0:00:05  635

 Reversed flow on 61 faces (7.9% area) of pressure-inlet 7.

 Reversed flow on 148 faces (42.8% area) of pressure-outlet 9.
   366  1.6657e-01  7.2809e-03  4.8846e-03  1.4714e-16  0:00:04  634

 Reversed flow on 60 faces (7.6% area) of pressure-inlet 7.

 Reversed flow on 156 faces (45.7% area) of pressure-outlet 9.
   367  1.5785e-01  7.3208e-03  4.8905e-03  1.4789e-16  0:00:03  633

 Reversed flow on 60 faces (7.6% area) of pressure-inlet 7.

 Reversed flow on 175 faces (47.8% area) of pressure-outlet 9.
   368  1.5095e-01  7.3244e-03  4.8798e-03  1.5150e-16  0:00:02  632

 Reversed flow on 61 faces (7.9% area) of pressure-inlet 7.

 Reversed flow on 159 faces (46.6% area) of pressure-outlet 9.
   369  1.4997e-01  7.2977e-03  4.8740e-03  1.5168e-16  0:00:02  631

 Reversed flow on 60 faces (7.6% area) of pressure-inlet 7.

 Reversed flow on 174 faces (48.0% area) of pressure-outlet 9.
   370  1.6826e-01  7.2598e-03  4.8675e-03  1.5609e-16  0:00:01  630

 Reversed flow on 60 faces (7.6% area) of pressure-inlet 7.

 Reversed flow on 173 faces (48.3% area) of pressure-outlet 9.
   371  1.6180e-01  7.4111e-03  4.8920e-03  1.5306e-16  0:00:01  629

 Reversed flow on 60 faces (7.6% area) of pressure-inlet 7.

 Reversed flow on 163 faces (48.2% area) of pressure-outlet 9.
   372  1.5781e-01  7.3685e-03  4.9018e-03  1.5209e-16  0:02:07  628

 Reversed flow on 59 faces (7.4% area) of pressure-inlet 7.

 Reversed flow on 170 faces (50.3% area) of pressure-outlet 9.
   373  1.6499e-01  7.3163e-03  4.8931e-03  1.5146e-16  0:01:41  627

 Reversed flow on 59 faces (7.4% area) of pressure-inlet 7.

 Reversed flow on 172 faces (51.7% area) of pressure-outlet 9.
   374  1.7444e-01  7.3498e-03  4.8931e-03  1.5287e-16  0:01:21  626

 Reversed flow on 59 faces (7.4% area) of pressure-inlet 7.

 Reversed flow on 183 faces (53.9% area) of pressure-outlet 9.

  iter  continuity  x-velocity  y-velocity      energy     time/iter
   375  1.5580e-01  7.4059e-03  4.9302e-03  1.5291e-16  0:01:04  625

 Reversed flow on 58 faces (7.1% area) of pressure-inlet 7.

 Reversed flow on 169 faces (53.3% area) of pressure-outlet 9.
   376  1.5277e-01  7.3298e-03  4.9511e-03  1.5452e-16  0:00:51  624

 Reversed flow on 58 faces (7.1% area) of pressure-inlet 7.

 Reversed flow on 182 faces (53.8% area) of pressure-outlet 9.
   377  1.6950e-01  7.3198e-03  4.9683e-03  1.5571e-16  0:00:41  623

 Reversed flow on 57 faces (6.9% area) of pressure-inlet 7.

 Reversed flow on 183 faces (55.5% area) of pressure-outlet 9.
   378  1.6403e-01  7.4413e-03  5.0116e-03  1.5485e-16  0:00:33  622

 Reversed flow on 57 faces (6.9% area) of pressure-inlet 7.

 Reversed flow on 188 faces (56.3% area) of pressure-outlet 9.
   379  1.5694e-01  7.3990e-03  5.0615e-03  1.5833e-16  0:00:26  621

 Reversed flow on 56 faces (6.7% area) of pressure-inlet 7.

 Reversed flow on 173 faces (57.1% area) of pressure-outlet 9.
   380  1.6171e-01  7.4184e-03  5.0816e-03  1.5530e-16  0:00:21  620

 Reversed flow on 55 faces (6.4% area) of pressure-inlet 7.

 Reversed flow on 193 faces (58.6% area) of pressure-outlet 9.
   381  1.5419e-01  7.5481e-03  5.1334e-03  1.5440e-16  0:00:17  619

 Reversed flow on 54 faces (6.2% area) of pressure-inlet 7.

 Reversed flow on 187 faces (58.9% area) of pressure-outlet 9.
   382  1.5131e-01  7.4822e-03  5.1982e-03  1.5305e-16  0:00:13  618

 Reversed flow on 53 faces (6.0% area) of pressure-inlet 7.

 Reversed flow on 161 faces (55.4% area) of pressure-outlet 9.
   383  1.5951e-01  7.5206e-03  5.2207e-03  1.5360e-16  0:00:11  617

 Reversed flow on 52 faces (5.8% area) of pressure-inlet 7.

 Reversed flow on 171 faces (57.4% area) of pressure-outlet 9.
   384  1.5306e-01  7.6849e-03  5.2337e-03  1.5376e-16  0:00:09  616

 Reversed flow on 51 faces (5.6% area) of pressure-inlet 7.

 Reversed flow on 184 faces (58.5% area) of pressure-outlet 9.
   385  1.6651e-01  7.6808e-03  5.2588e-03  1.5520e-16  0:00:07  615

 Reversed flow on 49 faces (5.2% area) of pressure-inlet 7.

 Reversed flow on 176 faces (60.7% area) of pressure-outlet 9.

  iter  continuity  x-velocity  y-velocity      energy     time/iter
   386  1.5385e-01  7.7637e-03  5.2754e-03  1.5582e-16  0:00:05  614

 Reversed flow on 48 faces (5.0% area) of pressure-inlet 7.

 Reversed flow on 190 faces (61.6% area) of pressure-outlet 9.
   387  1.5340e-01  7.8969e-03  5.2583e-03  1.5253e-16  0:00:04  613

 Reversed flow on 46 faces (4.7% area) of pressure-inlet 7.

 Reversed flow on 188 faces (62.1% area) of pressure-outlet 9.
   388  1.5132e-01  7.9379e-03  5.2652e-03  1.5333e-16  0:00:03  612

 Reversed flow on 44 faces (4.3% area) of pressure-inlet 7.

 Reversed flow on 181 faces (59.9% area) of pressure-outlet 9.
   389  1.7078e-01  8.0074e-03  5.2767e-03  1.5358e-16  0:00:03  611

 Reversed flow on 49 faces (6.7% area) of pressure-inlet 7.

 Reversed flow on 193 faces (59.9% area) of pressure-outlet 9.
   390  1.8112e-01  8.0758e-03  5.2894e-03  1.5291e-16  0:00:02  610

 Reversed flow on 51 faces (8.1% area) of pressure-inlet 7.

 Reversed flow on 171 faces (52.5% area) of pressure-outlet 9.
   391  1.5340e-01  8.2490e-03  5.2943e-03  1.5397e-16  0:00:02  609

 Reversed flow on 52 faces (9.1% area) of pressure-inlet 7.

 Reversed flow on 152 faces (47.2% area) of pressure-outlet 9.
   392  1.5615e-01  8.2325e-03  5.3127e-03  1.5267e-16  0:00:01  608

 Reversed flow on 53 faces (10.1% area) of pressure-inlet 7.

 Reversed flow on 164 faces (43.9% area) of pressure-outlet 9.
   393  1.7083e-01  8.2334e-03  5.3269e-03  1.5400e-16  0:02:03  607

 Reversed flow on 54 faces (11.5% area) of pressure-inlet 7.

 Reversed flow on 154 faces (40.2% area) of pressure-outlet 9.
   394  1.6834e-01  8.3873e-03  5.3369e-03  1.5027e-16  0:01:38  606

 Reversed flow on 54 faces (12.3% area) of pressure-inlet 7.

 Reversed flow on 142 faces (25.0% area) of pressure-outlet 9.
   395  1.6346e-01  8.3563e-03  5.3533e-03  1.5211e-16  0:01:18  605

 Reversed flow on 53 faces (13.2% area) of pressure-inlet 7.

 Reversed flow on 116 faces (22.9% area) of pressure-outlet 9.
   396  1.5367e-01  8.3761e-03  5.3953e-03  1.5169e-16  0:01:02  604

 Reversed flow on 53 faces (14.4% area) of pressure-inlet 7.

 Reversed flow on 125 faces (20.4% area) of pressure-outlet 9.

  iter  continuity  x-velocity  y-velocity      energy     time/iter
   397  1.3870e-01  8.3379e-03  5.3819e-03  1.5422e-16  0:00:50  603

 Reversed flow on 49 faces (15.1% area) of pressure-inlet 7.

 Reversed flow on 116 faces (17.3% area) of pressure-outlet 9.
   398  1.3614e-01  8.2547e-03  5.3487e-03  1.5338e-16  0:00:40  602

 Reversed flow on 43 faces (15.2% area) of pressure-inlet 7.

 Reversed flow on 141 faces (18.8% area) of pressure-outlet 9.
   399  1.3992e-01  8.1520e-03  5.3251e-03  1.5171e-16  0:00:32  601

 Reversed flow on 32 faces (15.6% area) of pressure-inlet 7.

 Reversed flow on 100 faces (15.7% area) of pressure-outlet 9.
   400  1.2065e-01  7.9918e-03  5.3197e-03  1.5100e-16  0:00:25  600

 Reversed flow on 33 faces (16.3% area) of pressure-inlet 7.

 Reversed flow on 127 faces (15.4% area) of pressure-outlet 9.
   401  1.5042e-01  7.8769e-03  5.3049e-03  1.4988e-16  0:00:20  599

 Reversed flow on 35 faces (17.8% area) of pressure-inlet 7.

 Reversed flow on 91 faces (10.6% area) of pressure-outlet 9.
   402  1.2564e-01  7.8185e-03  5.2795e-03  1.5102e-16  0:00:16  598

 Reversed flow on 37 faces (18.9% area) of pressure-inlet 7.

 Reversed flow on 120 faces (12.5% area) of pressure-outlet 9.
   403  1.3315e-01  7.7001e-03  5.2447e-03  1.5023e-16  0:00:13  597

 Reversed flow on 37 faces (19.4% area) of pressure-inlet 7.

 Reversed flow on 92 faces (10.0% area) of pressure-outlet 9.
   404  1.6402e-01  7.6282e-03  5.2233e-03  1.5227e-16  0:00:10  596

 Reversed flow on 39 faces (20.6% area) of pressure-inlet 7.

 Reversed flow on 119 faces (10.5% area) of pressure-outlet 9.
   405  1.3037e-01  7.5492e-03  5.1858e-03  1.5337e-16  0:00:08  595

 Reversed flow on 39 faces (21.1% area) of pressure-inlet 7.

 Reversed flow on 97 faces (11.1% area) of pressure-outlet 9.
   406  1.5875e-01  7.4159e-03  5.1549e-03  1.5165e-16  0:00:07  594

 Reversed flow on 39 faces (21.7% area) of pressure-inlet 7.

 Reversed flow on 127 faces (12.9% area) of pressure-outlet 9.
   407  1.3260e-01  7.3631e-03  5.1187e-03  1.5439e-16  0:00:05  593

 Reversed flow on 40 faces (22.6% area) of pressure-inlet 7.

 Reversed flow on 103 faces (9.1% area) of pressure-outlet 9.

  iter  continuity  x-velocity  y-velocity      energy     time/iter
   408  1.4231e-01  7.2404e-03  5.0655e-03  1.5378e-16  0:00:04  592

 Reversed flow on 40 faces (23.2% area) of pressure-inlet 7.

 Reversed flow on 139 faces (14.0% area) of pressure-outlet 9.
   409  1.6850e-01  7.1315e-03  5.0212e-03  1.5477e-16  0:00:03  591

 Reversed flow on 40 faces (23.8% area) of pressure-inlet 7.

 Reversed flow on 113 faces (11.6% area) of pressure-outlet 9.
   410  1.8414e-01  7.0786e-03  4.9705e-03  1.5274e-16  0:00:03  590

 Reversed flow on 40 faces (24.4% area) of pressure-inlet 7.

 Reversed flow on 142 faces (15.0% area) of pressure-outlet 9.
   411  1.8522e-01  6.9889e-03  4.9198e-03  1.5164e-16  0:00:02  589

 Reversed flow on 40 faces (25.1% area) of pressure-inlet 7.

 Reversed flow on 140 faces (17.7% area) of pressure-outlet 9.
   412  1.5363e-01  6.9476e-03  4.8732e-03  1.5418e-16  0:00:02  588

 Reversed flow on 40 faces (25.8% area) of pressure-inlet 7.

 Reversed flow on 146 faces (33.2% area) of pressure-outlet 9.
   413  1.5777e-01  6.9603e-03  4.8454e-03  1.5378e-16  0:00:01  587

 Reversed flow on 40 faces (26.5% area) of pressure-inlet 7.

 Reversed flow on 180 faces (41.6% area) of pressure-outlet 9.
   414  1.5208e-01  6.9218e-03  4.8144e-03  1.5513e-16  0:00:01  586

 Reversed flow on 41 faces (27.5% area) of pressure-inlet 7.

 Reversed flow on 154 faces (39.7% area) of pressure-outlet 9.
   415  1.6536e-01  6.9228e-03  4.7728e-03  1.5494e-16  0:01:58  585

 Reversed flow on 41 faces (28.3% area) of pressure-inlet 7.

 Reversed flow on 134 faces (43.9% area) of pressure-outlet 9.
   416  1.5314e-01  6.9781e-03  4.7292e-03  1.5272e-16  0:01:34  584

 Reversed flow on 41 faces (29.0% area) of pressure-inlet 7.

 Reversed flow on 161 faces (45.1% area) of pressure-outlet 9.
   417  1.5183e-01  6.9847e-03  4.6794e-03  1.5111e-16  0:01:15  583

 Reversed flow on 40 faces (28.6% area) of pressure-inlet 7.

 Reversed flow on 142 faces (42.4% area) of pressure-outlet 9.
   418  1.3547e-01  6.9983e-03  4.6200e-03  1.5221e-16  0:01:00  582

 Reversed flow on 41 faces (29.8% area) of pressure-inlet 7.

 Reversed flow on 137 faces (44.2% area) of pressure-outlet 9.

  iter  continuity  x-velocity  y-velocity      energy     time/iter
   419  1.3236e-01  7.0096e-03  4.5653e-03  1.5233e-16  0:00:48  581

 Reversed flow on 41 faces (30.6% area) of pressure-inlet 7.

 Reversed flow on 180 faces (48.8% area) of pressure-outlet 9.
   420  1.2541e-01  7.0385e-03  4.5159e-03  1.5264e-16  0:00:38  580

 Reversed flow on 40 faces (30.2% area) of pressure-inlet 7.

 Reversed flow on 159 faces (46.1% area) of pressure-outlet 9.
   421  1.1677e-01  7.0667e-03  4.4709e-03  1.5267e-16  0:00:31  579

[...]
   910  1.0727e-01  7.6854e-03  3.5337e-03  1.5065e-16  0:00:01   90

 Reversed flow on 67 faces (9.6% area) of pressure-inlet 7.

 Reversed flow on 224 faces (84.4% area) of pressure-outlet 9.
   911  1.1860e-01  7.7813e-03  3.5700e-03  1.5149e-16  0:00:01   89

 Reversed flow on 69 faces (10.2% area) of pressure-inlet 7.

 Reversed flow on 222 faces (83.7% area) of pressure-outlet 9.
   912  1.1542e-01  7.9248e-03  3.5931e-03  1.5175e-16  0:00:01   88

 Reversed flow on 70 faces (10.5% area) of pressure-inlet 7.

 Reversed flow on 211 faces (79.5% area) of pressure-outlet 9.
   913  1.2022e-01  8.0287e-03  3.6220e-03  1.4962e-16  0:00:01   87

 Reversed flow on 72 faces (11.2% area) of pressure-inlet 7.

 Reversed flow on 222 faces (78.4% area) of pressure-outlet 9.

  iter  continuity  x-velocity  y-velocity      energy     time/iter
   914  1.1583e-01  8.1431e-03  3.6607e-03  1.5014e-16  0:00:00   86

 Reversed flow on 74 faces (11.9% area) of pressure-inlet 7.

 Reversed flow on 201 faces (74.0% area) of pressure-outlet 9.
   915  1.1935e-01  8.2389e-03  3.6916e-03  1.5158e-16  0:00:00   85

 Reversed flow on 75 faces (12.2% area) of pressure-inlet 7.

 Reversed flow on 195 faces (72.6% area) of pressure-outlet 9.
   916  1.2408e-01  8.3334e-03  3.7147e-03  1.5234e-16  0:00:00   84

 Reversed flow on 76 faces (12.6% area) of pressure-inlet 7.

 Reversed flow on 188 faces (64.4% area) of pressure-outlet 9.
   917  1.2779e-01  8.4675e-03  3.7329e-03  1.5145e-16  0:00:00   83

 Reversed flow on 77 faces (13.0% area) of pressure-inlet 7.

 Reversed flow on 197 faces (62.5% area) of pressure-outlet 9.
   918  1.6293e-01  8.5569e-03  3.7343e-03  1.5139e-16  0:00:17   82

 Reversed flow on 79 faces (13.8% area) of pressure-inlet 7.

 Reversed flow on 158 faces (56.3% area) of pressure-outlet 9.
   919  1.3226e-01  8.7409e-03  3.7747e-03  1.5232e-16  0:00:13   81

 Reversed flow on 80 faces (14.2% area) of pressure-inlet 7.

 Reversed flow on 189 faces (52.3% area) of pressure-outlet 9.
   920  1.2220e-01  8.7901e-03  3.7966e-03  1.5283e-16  0:00:10   80

 Reversed flow on 79 faces (13.9% area) of pressure-inlet 7.

 Reversed flow on 168 faces (38.1% area) of pressure-outlet 9.
   921  1.2970e-01  8.8360e-03  3.7996e-03  1.5124e-16  0:00:08   79

 Reversed flow on 81 faces (14.7% area) of pressure-inlet 7.

 Reversed flow on 118 faces (29.4% area) of pressure-outlet 9.
   922  1.4351e-01  8.8488e-03  3.8030e-03  1.5380e-16  0:00:06   78

 Reversed flow on 79 faces (13.9% area) of pressure-inlet 7.

 Reversed flow on 180 faces (33.6% area) of pressure-outlet 9.
   923  1.1674e-01  8.8884e-03  3.8316e-03  1.5263e-16  0:00:05   77

 Reversed flow on 78 faces (13.5% area) of pressure-inlet 7.

 Reversed flow on 127 faces (25.0% area) of pressure-outlet 9.
   924  1.0917e-01  8.8531e-03  3.8010e-03  1.5110e-16  0:00:04   76

 Reversed flow on 76 faces (12.7% area) of pressure-inlet 7.

 Reversed flow on 130 faces (25.5% area) of pressure-outlet 9.

  iter  continuity  x-velocity  y-velocity      energy     time/iter
   925  1.1540e-01  8.8300e-03  3.7661e-03  1.5041e-16  0:00:03   75

 Reversed flow on 76 faces (12.7% area) of pressure-inlet 7.

 Reversed flow on 144 faces (24.6% area) of pressure-outlet 9.
   926  1.0744e-01  8.8168e-03  3.7447e-03  1.5187e-16  0:00:03   74

 Reversed flow on 75 faces (12.3% area) of pressure-inlet 7.

 Reversed flow on 161 faces (25.3% area) of pressure-outlet 9.
   927  1.1426e-01  8.7830e-03  3.7289e-03  1.5126e-16  0:00:02   73

 Reversed flow on 73 faces (11.5% area) of pressure-inlet 7.

 Reversed flow on 121 faces (20.9% area) of pressure-outlet 9.
   928  1.0965e-01  8.7535e-03  3.6972e-03  1.5115e-16  0:00:02   72

 Reversed flow on 72 faces (11.2% area) of pressure-inlet 7.

 Reversed flow on 156 faces (22.2% area) of pressure-outlet 9.
   929  1.0284e-01  8.7236e-03  3.6676e-03  1.5119e-16  0:00:01   71

 Reversed flow on 70 faces (10.5% area) of pressure-inlet 7.

 Reversed flow on 140 faces (20.2% area) of pressure-outlet 9.
   930  9.9051e-02  8.6860e-03  3.6384e-03  1.5124e-16  0:00:01   70

 Reversed flow on 68 faces (9.9% area) of pressure-inlet 7.

 Reversed flow on 143 faces (20.5% area) of pressure-outlet 9.
   931  9.0361e-02  8.6476e-03  3.5949e-03  1.4997e-16  0:00:01   69

 Reversed flow on 65 faces (9.0% area) of pressure-inlet 7.

 Reversed flow on 123 faces (15.5% area) of pressure-outlet 9.
   932  1.0253e-01  8.5895e-03  3.5655e-03  1.5239e-16  0:00:01   68

 Reversed flow on 62 faces (8.1% area) of pressure-inlet 7.

 Reversed flow on 151 faces (18.7% area) of pressure-outlet 9.
   933  8.8519e-02  8.5598e-03  3.5583e-03  1.5451e-16  0:00:00   67

 Reversed flow on 59 faces (7.4% area) of pressure-inlet 7.

 Reversed flow on 123 faces (16.3% area) of pressure-outlet 9.
   934  9.3372e-02  8.5030e-03  3.5504e-03  1.5158e-16  0:00:00   66

 Reversed flow on 57 faces (6.9% area) of pressure-inlet 7.

 Reversed flow on 137 faces (15.5% area) of pressure-outlet 9.
   935  9.2105e-02  8.4364e-03  3.5521e-03  1.5182e-16  0:00:00   65

 Reversed flow on 55 faces (6.4% area) of pressure-inlet 7.

 Reversed flow on 140 faces (15.4% area) of pressure-outlet 9.

  iter  continuity  x-velocity  y-velocity      energy     time/iter
   936  9.0783e-02  8.3758e-03  3.5642e-03  1.5153e-16  0:00:00   64

 Reversed flow on 53 faces (6.0% area) of pressure-inlet 7.

 Reversed flow on 135 faces (14.8% area) of pressure-outlet 9.
   937  8.9915e-02  8.2931e-03  3.5705e-03  1.5433e-16  0:00:00   63

 Reversed flow on 51 faces (5.6% area) of pressure-inlet 7.

 Reversed flow on 124 faces (13.0% area) of pressure-outlet 9.
   938  8.2126e-02  8.1998e-03  3.5969e-03  1.5776e-16  0:00:00   62

 Reversed flow on 50 faces (5.4% area) of pressure-inlet 7.

 Reversed flow on 129 faces (13.3% area) of pressure-outlet 9.
   939  8.6419e-02  8.0925e-03  3.6267e-03  1.5621e-16  0:00:00   61

 Reversed flow on 48 faces (5.0% area) of pressure-inlet 7.

 Reversed flow on 137 faces (13.3% area) of pressure-outlet 9.
   940  9.7133e-02  7.9740e-03  3.6618e-03  1.5707e-16  0:00:00   60

 Reversed flow on 46 faces (4.8% area) of pressure-inlet 7.

 Reversed flow on 94 faces (8.8% area) of pressure-outlet 9.
   941  9.1635e-02  7.8529e-03  3.7008e-03  1.5624e-16  0:00:12   59

 Reversed flow on 45 faces (4.6% area) of pressure-inlet 7.

 Reversed flow on 151 faces (13.9% area) of pressure-outlet 9.
   942  9.3820e-02  7.7216e-03  3.7540e-03  1.5597e-16  0:00:09   58

 Reversed flow on 44 faces (4.4% area) of pressure-inlet 7.

 Reversed flow on 99 faces (8.7% area) of pressure-outlet 9.
   943  9.0951e-02  7.5982e-03  3.8059e-03  1.5610e-16  0:00:07   57

 Reversed flow on 43 faces (4.3% area) of pressure-inlet 7.

 Reversed flow on 134 faces (12.3% area) of pressure-outlet 9.
   944  9.3504e-02  7.4531e-03  3.8700e-03  1.5487e-16  0:00:06   56

 Reversed flow on 42 faces (4.1% area) of pressure-inlet 7.

 Reversed flow on 134 faces (12.1% area) of pressure-outlet 9.
   945  9.1186e-02  7.3085e-03  3.9322e-03  1.5178e-16  0:00:05   55

 Reversed flow on 40 faces (3.9% area) of pressure-inlet 7.

 Reversed flow on 135 faces (13.8% area) of pressure-outlet 9.
   946  8.8676e-02  7.1851e-03  4.0011e-03  1.5527e-16  0:00:04   54

 Reversed flow on 39 faces (3.7% area) of pressure-inlet 7.

 Reversed flow on 142 faces (12.7% area) of pressure-outlet 9.

  iter  continuity  x-velocity  y-velocity      energy     time/iter
   947  9.8894e-02  7.0531e-03  4.0674e-03  1.5475e-16  0:00:03   53

 Reversed flow on 39 faces (3.7% area) of pressure-inlet 7.

 Reversed flow on 153 faces (14.6% area) of pressure-outlet 9.
   948  1.0019e-01  6.9501e-03  4.1351e-03  1.5177e-16  0:00:02   52

 Reversed flow on 37 faces (3.5% area) of pressure-inlet 7.

 Reversed flow on 108 faces (12.0% area) of pressure-outlet 9.
   949  9.9890e-02  6.8450e-03  4.2025e-03  1.5414e-16  0:00:02   51

 Reversed flow on 40 faces (5.5% area) of pressure-inlet 7.

 Reversed flow on 140 faces (13.8% area) of pressure-outlet 9.
   950  1.0035e-01  6.7383e-03  4.2612e-03  1.5346e-16  0:00:01   50

 Reversed flow on 40 faces (5.5% area) of pressure-inlet 7.

 Reversed flow on 113 faces (12.4% area) of pressure-outlet 9.
   951  9.8012e-02  6.6802e-03  4.3258e-03  1.5319e-16  0:00:01   49

 Reversed flow on 38 faces (5.4% area) of pressure-inlet 7.

 Reversed flow on 146 faces (16.9% area) of pressure-outlet 9.
   952  1.2780e-01  6.6094e-03  4.3821e-03  1.5384e-16  0:00:01   48

 Reversed flow on 40 faces (6.8% area) of pressure-inlet 7.

 Reversed flow on 112 faces (15.6% area) of pressure-outlet 9.
   953  1.0433e-01  6.5641e-03  4.4362e-03  1.5374e-16  0:00:01   47

 Reversed flow on 40 faces (6.8% area) of pressure-inlet 7.

 Reversed flow on 128 faces (20.1% area) of pressure-outlet 9.
   954  1.1293e-01  6.5407e-03  4.4687e-03  1.5361e-16  0:00:01   46

 Reversed flow on 39 faces (5.5% area) of pressure-inlet 7.

 Reversed flow on 129 faces (25.0% area) of pressure-outlet 9.
   955  1.1909e-01  6.5086e-03  4.5078e-03  1.5525e-16  0:00:00   45

 Reversed flow on 39 faces (4.3% area) of pressure-inlet 7.

 Reversed flow on 143 faces (29.9% area) of pressure-outlet 9.
   956  1.1262e-01  6.5315e-03  4.5430e-03  1.4854e-16  0:00:00   44

 Reversed flow on 40 faces (3.7% area) of pressure-inlet 7.

 Reversed flow on 124 faces (31.6% area) of pressure-outlet 9.
   957  1.1036e-01  6.4823e-03  4.5604e-03  1.4661e-16  0:00:00   43

 Reversed flow on 39 faces (3.5% area) of pressure-inlet 7.

 Reversed flow on 123 faces (32.3% area) of pressure-outlet 9.

  iter  continuity  x-velocity  y-velocity      energy     time/iter
   958  1.0545e-01  6.4369e-03  4.5702e-03  1.4968e-16  0:00:00   42

 Reversed flow on 38 faces (3.5% area) of pressure-inlet 7.

 Reversed flow on 137 faces (40.9% area) of pressure-outlet 9.
   959  1.1617e-01  6.3756e-03  4.5806e-03  1.5001e-16  0:00:00   41

 Reversed flow on 38 faces (3.5% area) of pressure-inlet 7.

 Reversed flow on 135 faces (37.9% area) of pressure-outlet 9.
   960  1.1519e-01  6.3219e-03  4.5723e-03  1.4981e-16  0:00:00   40

 Reversed flow on 37 faces (3.3% area) of pressure-inlet 7.

 Reversed flow on 134 faces (35.8% area) of pressure-outlet 9.
   961  1.2143e-01  6.2627e-03  4.5478e-03  1.5260e-16  0:00:00   39

 Reversed flow on 37 faces (3.3% area) of pressure-inlet 7.

 Reversed flow on 160 faces (43.3% area) of pressure-outlet 9.
   962  1.1835e-01  6.2013e-03  4.5261e-03  1.5401e-16  0:00:00   38

 Reversed flow on 37 faces (3.3% area) of pressure-inlet 7.

 Reversed flow on 158 faces (41.8% area) of pressure-outlet 9.
   963  1.2078e-01  6.1498e-03  4.4926e-03  1.5218e-16  0:00:07   37

 Reversed flow on 36 faces (3.2% area) of pressure-inlet 7.

 Reversed flow on 162 faces (44.8% area) of pressure-outlet 9.
   964  1.2163e-01  6.1156e-03  4.4546e-03  1.5077e-16  0:00:06   36

 Reversed flow on 36 faces (3.2% area) of pressure-inlet 7.

 Reversed flow on 149 faces (39.3% area) of pressure-outlet 9.
   965  1.0747e-01  6.1088e-03  4.4035e-03  1.4976e-16  0:00:05   35

 Reversed flow on 35 faces (3.1% area) of pressure-inlet 7.

 Reversed flow on 175 faces (42.8% area) of pressure-outlet 9.
   966  1.1015e-01  6.1127e-03  4.3594e-03  1.5095e-16  0:00:04   34

 Reversed flow on 35 faces (3.1% area) of pressure-inlet 7.

 Reversed flow on 143 faces (40.1% area) of pressure-outlet 9.
   967  1.1083e-01  6.1331e-03  4.3118e-03  1.5235e-16  0:00:03   33

 Reversed flow on 34 faces (2.9% area) of pressure-inlet 7.

 Reversed flow on 171 faces (43.1% area) of pressure-outlet 9.
   968  1.0854e-01  6.1582e-03  4.2656e-03  1.5495e-16  0:00:02   32

 Reversed flow on 32 faces (2.8% area) of pressure-inlet 7.

 Reversed flow on 130 faces (35.7% area) of pressure-outlet 9.

  iter  continuity  x-velocity  y-velocity      energy     time/iter
   969  1.0800e-01  6.2192e-03  4.2358e-03  1.5289e-16  0:00:02   31

 Reversed flow on 31 faces (2.6% area) of pressure-inlet 7.

 Reversed flow on 153 faces (42.4% area) of pressure-outlet 9.
   970  1.1174e-01  6.3026e-03  4.2010e-03  1.5101e-16  0:00:01   30

 Reversed flow on 30 faces (2.5% area) of pressure-inlet 7.

 Reversed flow on 138 faces (39.2% area) of pressure-outlet 9.
   971  1.1308e-01  6.4138e-03  4.1762e-03  1.5277e-16  0:00:01   29

 Reversed flow on 29 faces (2.4% area) of pressure-inlet 7.

 Reversed flow on 139 faces (39.3% area) of pressure-outlet 9.
   972  1.1224e-01  6.5389e-03  4.1703e-03  1.5054e-16  0:00:01   28

 Reversed flow on 28 faces (2.3% area) of pressure-inlet 7.

 Reversed flow on 167 faces (44.0% area) of pressure-outlet 9.
   973  1.0566e-01  6.6471e-03  4.1737e-03  1.5005e-16  0:00:01   27

 Reversed flow on 27 faces (2.2% area) of pressure-inlet 7.

 Reversed flow on 150 faces (46.7% area) of pressure-outlet 9.
   974  1.0617e-01  6.7220e-03  4.1753e-03  1.4841e-16  0:00:00   26

 Reversed flow on 25 faces (2.0% area) of pressure-inlet 7.

 Reversed flow on 148 faces (46.3% area) of pressure-outlet 9.
   975  1.0197e-01  6.8213e-03  4.1775e-03  1.4960e-16  0:00:00   25

 Reversed flow on 24 faces (1.9% area) of pressure-inlet 7.

 Reversed flow on 189 faces (55.7% area) of pressure-outlet 9.
   976  1.0583e-01  6.9148e-03  4.1750e-03  1.4759e-16  0:00:00   24

 Reversed flow on 22 faces (1.7% area) of pressure-inlet 7.

 Reversed flow on 171 faces (52.4% area) of pressure-outlet 9.
   977  1.1128e-01  7.0025e-03  4.1687e-03  1.5288e-16  0:00:00   23

 Reversed flow on 20 faces (1.5% area) of pressure-inlet 7.

 Reversed flow on 188 faces (55.2% area) of pressure-outlet 9.
   978  1.0873e-01  7.0784e-03  4.1541e-03  1.5638e-16  0:00:00   22

 Reversed flow on 18 faces (1.4% area) of pressure-inlet 7.

 Reversed flow on 176 faces (56.1% area) of pressure-outlet 9.
   979  1.1225e-01  7.1352e-03  4.1456e-03  1.5379e-16  0:00:00   21

 Reversed flow on 16 faces (1.2% area) of pressure-inlet 7.

 Reversed flow on 186 faces (57.4% area) of pressure-outlet 9.

  iter  continuity  x-velocity  y-velocity      energy     time/iter
   980  1.0833e-01  7.1752e-03  4.1330e-03  1.5333e-16  0:00:00   20

 Reversed flow on 14 faces (1.1% area) of pressure-inlet 7.

 Reversed flow on 187 faces (59.2% area) of pressure-outlet 9.
   981  1.0777e-01  7.2092e-03  4.1136e-03  1.5356e-16  0:00:00   19

 Reversed flow on 12 faces (0.9% area) of pressure-inlet 7.

 Reversed flow on 197 faces (61.5% area) of pressure-outlet 9.
   982  1.0806e-01  7.2365e-03  4.0937e-03  1.5250e-16  0:00:04   18

 Reversed flow on 8 faces (0.6% area) of pressure-inlet 7.

 Reversed flow on 208 faces (63.3% area) of pressure-outlet 9.
   983  1.0556e-01  7.2760e-03  4.0615e-03  1.5108e-16  0:00:03   17

 Reversed flow on 204 faces (64.9% area) of pressure-outlet 9.
   984  1.1103e-01  7.3216e-03  4.0274e-03  1.5346e-16  0:00:02   16

 Reversed flow on 174 faces (61.8% area) of pressure-outlet 9.
   985  1.2074e-01  7.3866e-03  3.9777e-03  1.5332e-16  0:00:02   15

 Reversed flow on 218 faces (68.8% area) of pressure-outlet 9.
   986  1.1069e-01  7.4505e-03  3.9517e-03  1.5402e-16  0:00:01   14

 Reversed flow on 211 faces (67.6% area) of pressure-outlet 9.
   987  1.0651e-01  7.4868e-03  3.9183e-03  1.5229e-16  0:00:01   13

 Reversed flow on 179 faces (66.1% area) of pressure-outlet 9.
   988  1.0531e-01  7.5175e-03  3.8896e-03  1.5285e-16  0:00:01   12

 Reversed flow on 213 faces (65.4% area) of pressure-outlet 9.
   989  1.0763e-01  7.5394e-03  3.8716e-03  1.5064e-16  0:00:00   11

 Reversed flow on 2 faces (1.1% area) of pressure-inlet 7.

 Reversed flow on 206 faces (66.4% area) of pressure-outlet 9.
   990  1.1412e-01  7.5786e-03  3.8548e-03  1.5266e-16  0:00:00   10

 Reversed flow on 6 faces (3.3% area) of pressure-inlet 7.

 Reversed flow on 183 faces (67.4% area) of pressure-outlet 9.

  iter  continuity  x-velocity  y-velocity      energy     time/iter
   991  1.0906e-01  7.6222e-03  3.8153e-03  1.5166e-16  0:00:00    9

 Reversed flow on 8 faces (4.6% area) of pressure-inlet 7.

 Reversed flow on 201 faces (66.9% area) of pressure-outlet 9.
   992  1.1104e-01  7.6950e-03  3.7671e-03  1.5004e-16  0:00:00    8

 Reversed flow on 10 faces (6.0% area) of pressure-inlet 7.

 Reversed flow on 190 faces (61.4% area) of pressure-outlet 9.
   993  1.1184e-01  7.7652e-03  3.7146e-03  1.4967e-16  0:00:00    7

 Reversed flow on 12 faces (7.4% area) of pressure-inlet 7.

 Reversed flow on 158 faces (61.0% area) of pressure-outlet 9.
   994  1.1242e-01  7.8302e-03  3.6568e-03  1.5063e-16  0:00:00    6

 Reversed flow on 14 faces (8.9% area) of pressure-inlet 7.

 Reversed flow on 181 faces (57.3% area) of pressure-outlet 9.
   995  1.1214e-01  7.8859e-03  3.6062e-03  1.5279e-16  0:00:00    5

 Reversed flow on 17 faces (11.0% area) of pressure-inlet 7.

 Reversed flow on 153 faces (50.9% area) of pressure-outlet 9.
   996  1.1316e-01  7.9258e-03  3.5716e-03  1.5344e-16  0:00:00    4

 Reversed flow on 19 faces (12.6% area) of pressure-inlet 7.

 Reversed flow on 168 faces (49.3% area) of pressure-outlet 9.
   997  1.2330e-01  7.9692e-03  3.5341e-03  1.5369e-16  0:00:00    3

 Reversed flow on 21 faces (14.3% area) of pressure-inlet 7.

 Reversed flow on 117 faces (41.3% area) of pressure-outlet 9.
   998  1.1474e-01  8.0082e-03  3.4982e-03  1.5181e-16  0:00:00    2

 Reversed flow on 23 faces (16.2% area) of pressure-inlet 7.

 Reversed flow on 126 faces (28.8% area) of pressure-outlet 9.
   999  1.0597e-01  8.0244e-03  3.4755e-03  1.5201e-16  0:00:00    1

 Reversed flow on 25 faces (18.1% area) of pressure-inlet 7.

 Reversed flow on 106 faces (26.0% area) of pressure-outlet 9.
  1000  1.0298e-01  8.0104e-03  3.4645e-03  1.5102e-16  0:00:00    0
Writing "| gzip -2cf > SolutionMonitor.gz"...
Writing temporary file C:\\Users\\deubanks\\AppData\\Local\\Temp\\flntgz-150643 ...
Done.

Writing data to \\\\nas01.itap.purdue.edu\\puhome\\Desktop\\412GIT\\AAE412_Project\\ANSYS_Files\\NozzleB\\NozzleB_files\\dp0\\FFF-5\\Fluent\\FFF-5.1.ip ...
	x-coord
	y-coord
	pressure
	x-velocity
	y-velocity
	temperature
Done.
Writing "| gzip -2cf > FFF-5.1-3.cas.gz"...
Writing temporary file C:\\Users\\deubanks\\AppData\\Local\\Temp\\flntgz-150644 ...
   38500 quadrilateral cells, zone  3, binary.
   38500 cell partition ids, zone  3, 4 partitions, binary.
   76030 2D interior faces, zone  1, binary.
     490 2D interior faces, zone  2, binary.
      40 2D pressure-inlet faces, zone  6, binary.
     150 2D pressure-inlet faces, zone  7, binary.
     140 2D wall faces, zone  8, binary.
     380 2D pressure-outlet faces, zone  9, binary.
     250 2D axis faces, zone 10, binary.
   38981 nodes, binary.
   38981 node flags, binary.
Done.

Writing "| gzip -2cf > FFF-5.1-3-01000.dat.gz"...
Writing temporary file C:\\Users\\deubanks\\AppData\\Local\\Temp\\flntgz-150645 ...
Done.


Performance Timer for 1000 iterations on 4 compute nodes
  Average wall-clock time per iteration:              0.016 sec
  Global reductions per iteration:                       71 ops
  Global reductions time per iteration:               0.000 sec (0.0%)
  Message count per iteration:                         3168 messages
  Data transfer per iteration:                        0.911 MB
  LE solves per iteration:                                4 solves
  LE wall-clock time per iteration:                   0.008 sec (48.3%)
  LE global solves per iteration:                         7 solves
  LE global wall-clock time per iteration:            0.000 sec (0.6%)
  LE global matrix maximum size:                        18
  AMG cycles per iteration:                           9.509 cycles
  Relaxation sweeps per iteration:                      268 sweeps
  Relaxation exchanges per iteration:                     0 exchanges
  LE early protections (stall) per iteration:           0.002 times
  LE early protections (divergence) per iteration:      0.000 times

  Total wall-clock time:                             16.226 sec

