
Build Time: Apr 16 2019 10:49:06 
Executable Path: C:/PROGRA~1/ANSYSI~1/v194/fluent/ntbin/win64/fluent.exe

-------------------------------------------------------------------------------
ID    Hostname        Core  O.S.         PID    Vendor                    
-------------------------------------------------------------------------------
n3    X-ARMS2106PC63  4/12  Windows-x64  13108  Intel(R) Core(TM) i7-8700 
n2    X-ARMS2106PC63  3/12  Windows-x64  9796   Intel(R) Core(TM) i7-8700 
n1    X-ARMS2106PC63  2/12  Windows-x64  3964   Intel(R) Core(TM) i7-8700 
n0*   X-ARMS2106PC63  1/12  Windows-x64  15168  Intel(R) Core(TM) i7-8700 
host  X-ARMS2106PC63        Windows-x64  11392  Intel(R) Core(TM) i7-8700 

MPI Option Selected: ibmmpi
Selected system interconnect: default
-------------------------------------------------------------------------------
Warning: Ignoring WB preference save-post-processing-images
Multicore SMT processors detected. Processor affinity set!
Reading "\"| gunzip -c \\"W:\AAE412\Project\Git\ANSYS_Files\NozzleA\NozzleA_files\dp0\FFF-4\Fluent\FFF-4.1-Setup-Output.cas.gz\\"\""...
Buffering for file scan...



   23100 quadrilateral cells, zone  3, binary.
   23100 cell partition ids, zone  3, 4 partitions, binary.
   45509 2D interior faces, zone  1, binary.
     240 2D interior faces, zone  2, binary.
     100 2D velocity-inlet faces, zone  6, binary.
     251 2D pressure-far-field faces, zone  7, binary.
     300 2D axis faces, zone  8, binary.
      40 2D pressure-inlet faces, zone  9, binary.
     211 2D wall faces, zone 10, binary.
   23552 nodes, binary.
23552 node flags, binary.

Building...
     mesh
	distributing mesh
		parts....,
		faces....,
		nodes....,
		cells....,
        bandwidth reduction using Reverse Cuthill-McKee: 4934/62 = 79.5806
     materials,
     interface,
     domains,
	mixture
     zones,
	nozzlewall
	axis
	surface_body
	interior-surface_body
	flowinlet
	ambientinlet
	farfield
	solid-surface_bodySetting solid-surface_body (mixture) ... Done.
 Setting zone id of solid-surface_body to 3.
 Setting zone id of farfield to 7.
 Setting zone id of ambientinlet to 6.
 Setting zone id of flowinlet to 9.
 Setting zone id of interior-surface_body to 1.
 Setting zone id of surface_body to 2.
 Setting zone id of axis to 8.
 Setting zone id of nozzlewall to 10.
Done.
Setting solid-surface_body (mixture) ... Done.
Setting farfield (mixture) ... Done.
Setting ambientinlet (mixture) ... Done.
Setting flowinlet (mixture) ... Done.
Setting interior-surface_body (mixture) ... Done.
Setting surface_body (mixture) ... Done.
Setting axis (mixture) ... Done.
Setting nozzlewall (mixture) ... Done.

     parallel,
Done.

Preparing mesh for display...
Done.
"Updating Setup cell..."
"Updating Solution cell..."
Reading "\"| gunzip -c \\"W:\AAE412\Project\Git\ANSYS_Files\NozzleA\NozzleA_files\dp0\FFF-4\Fluent\FFF-4.1-10-01000.dat.gz\\"\""...


Parallel variables...
Done.

  iter  continuity  x-velocity  y-velocity      energy           k     epsilon     time/iter
  1000  9.9285e-05  4.9050e-06  2.9121e-06  9.5361e-05  1.7011e-07  3.2062e-07  0:00:00 1000
  1001  9.9748e-05  5.0346e-06  2.8946e-06  9.5805e-05  1.7008e-07  3.1776e-07  0:00:00  999
  1002  1.0015e-04  5.2556e-06  2.8795e-06  9.6194e-05  1.6986e-07  3.1465e-07  0:00:00  998
  1003  1.0048e-04  5.4252e-06  2.8614e-06  9.6511e-05  1.6930e-07  3.1092e-07  0:00:00  997
  1004  1.0074e-04  5.5787e-06  2.8350e-06  9.6757e-05  1.6863e-07  3.0671e-07  0:00:00  996
  1005  1.0093e-04  5.7471e-06  2.8033e-06  9.6935e-05  1.6781e-07  3.0213e-07  0:00:00  995
  1006  1.0104e-04  5.9435e-06  2.7697e-06  9.7045e-05  1.6675e-07  2.9716e-07  0:00:00  994
  1007  1.0109e-04  6.1766e-06  2.7365e-06  9.7087e-05  1.6554e-07  2.9178e-07  0:00:00  993
  1008  1.0106e-04  6.4538e-06  2.7047e-06  9.7063e-05  1.6410e-07  2.8608e-07  0:00:00  992
  1009  1.0097e-04  6.7830e-06  2.6747e-06  9.6973e-05  1.6239e-07  2.8007e-07  0:00:00  991
  1010  1.0081e-04  7.1707e-06  2.6474e-06  9.6818e-05  1.6047e-07  2.7375e-07  0:00:00  990

  iter  continuity  x-velocity  y-velocity      energy           k     epsilon     time/iter
  1011  1.0058e-04  7.6245e-06  2.6232e-06  9.6600e-05  1.5835e-07  2.6707e-07  0:00:00  989
  1012  1.0029e-04  8.1479e-06  2.6051e-06  9.6322e-05  1.5609e-07  2.6033e-07  0:00:00  988
  1013  9.9955e-05  8.8130e-06  2.5939e-06  9.5996e-05  1.5365e-07  2.5364e-07  0:00:00  987
  1014  9.9736e-05  1.1003e-05  2.5904e-06  9.5785e-05  1.5107e-07  2.4678e-07  0:00:00  986
  1015  9.9784e-05  1.4795e-05  2.5747e-06  9.5830e-05  1.4841e-07  2.4048e-07  0:00:00  985
  1016  1.0037e-04  2.0354e-05  2.5448e-06  9.6394e-05  1.4568e-07  2.3424e-07  0:16:24  984
  1017  1.0232e-04  2.8446e-05  2.5083e-06  9.8265e-05  1.4298e-07  2.2841e-07  0:13:06  983
  1018  1.0543e-04  3.7248e-05  2.4703e-06  1.0126e-04  1.4076e-07  2.2454e-07  0:10:28  982
  1019  1.0626e-04  4.0547e-05  2.5077e-06  1.0205e-04  1.3883e-07  2.2160e-07  0:08:22  981
  1020  1.0420e-04  3.5895e-05  2.6086e-06  1.0007e-04  1.3437e-07  2.1462e-07  0:06:41  980
  1021  1.0137e-04  3.2558e-05  2.7735e-06  9.7344e-05  1.3026e-07  2.0982e-07  0:05:21  979

  iter  continuity  x-velocity  y-velocity      energy           k     epsilon     time/iter
  1022  1.0233e-04  3.7635e-05  3.0363e-06  9.8270e-05  1.2791e-07  2.0847e-07  0:04:16  978
  1023  1.0801e-04  5.0787e-05  3.0315e-06  1.0373e-04  1.2644e-07  2.0962e-07  0:03:25  977
  1024  1.0358e-04  4.2685e-05  3.0201e-06  9.9474e-05  1.2437e-07  2.1145e-07  0:02:44  976
  1025  9.9660e-05  3.6171e-05  4.2856e-06  9.5708e-05  1.2344e-07  2.1416e-07  0:02:11  975
  1026  9.1684e-05  2.1976e-05  4.7350e-06  8.8039e-05  1.2179e-07  2.1564e-07  0:01:45  974
  1027  8.8411e-05  1.3152e-05  4.5273e-06  8.4895e-05  1.1911e-07  2.1569e-07  0:01:24  973
  1028  8.6394e-05  7.7973e-06  4.2941e-06  8.2958e-05  1.1622e-07  2.1554e-07  0:01:07  972
  1029  8.4932e-05  5.9490e-06  3.9902e-06  8.1552e-05  1.1284e-07  2.1484e-07  0:00:53  971
  1030  8.3643e-05  5.7262e-06  3.6244e-06  8.0312e-05  1.0934e-07  2.1452e-07  0:00:43  970
  1031  8.2400e-05  5.9903e-06  3.2466e-06  7.9117e-05  1.0627e-07  2.1563e-07  0:00:34  969
  1032  8.1183e-05  6.4347e-06  2.9281e-06  7.7946e-05  1.0369e-07  2.1748e-07  0:00:27  968

  iter  continuity  x-velocity  y-velocity      energy           k     epsilon     time/iter
  1033  7.9998e-05  7.0297e-06  2.7224e-06  7.6806e-05  1.0150e-07  2.1990e-07  0:00:22  967
  1034  7.8861e-05  7.7734e-06  2.6622e-06  7.5711e-05  9.9568e-08  2.2273e-07  0:00:17  966
  1035  7.7794e-05  8.6770e-06  2.7402e-06  7.4683e-05  9.8011e-08  2.2603e-07  0:03:27  965
  1036  7.6823e-05  9.7501e-06  2.9266e-06  7.3747e-05  9.6670e-08  2.2950e-07  0:02:45  964
  1037  7.5965e-05  1.1633e-05  3.1933e-06  7.2918e-05  9.5438e-08  2.3329e-07  0:02:12  963
  1038  7.5194e-05  1.5736e-05  3.5174e-06  7.2176e-05  9.4365e-08  2.3739e-07  0:01:46  962
  1039  7.4520e-05  1.8436e-05  3.4778e-06  7.1539e-05  9.3261e-08  2.4119e-07  0:01:24  961
  1040  7.3621e-05  1.9773e-05  3.5193e-06  7.0684e-05  9.2035e-08  2.4426e-07  0:01:07  960
  1041  7.2313e-05  1.9671e-05  3.4940e-06  6.9431e-05  9.0652e-08  2.4612e-07  0:00:54  959
  1042  7.0730e-05  1.8647e-05  3.3591e-06  6.7912e-05  8.9263e-08  2.4723e-07  0:00:43  958
  1043  6.9031e-05  1.7130e-05  3.1459e-06  6.6280e-05  8.7960e-08  2.4812e-07  0:00:34  957

  iter  continuity  x-velocity  y-velocity      energy           k     epsilon     time/iter
  1044  6.7339e-05  1.5443e-05  2.9022e-06  6.4654e-05  8.6795e-08  2.4911e-07  0:00:28  956
  1045  6.5723e-05  1.3775e-05  2.6688e-06  6.3100e-05  8.5746e-08  2.5024e-07  0:00:22  955
  1046  6.4210e-05  1.2225e-05  2.4570e-06  6.1646e-05  8.4774e-08  2.5125e-07  0:00:18  954
  1047  6.2808e-05  1.0835e-05  2.2660e-06  6.0297e-05  8.3864e-08  2.5203e-07  0:00:14  953
  1048  6.1510e-05  9.6118e-06  2.0901e-06  5.9049e-05  8.2988e-08  2.5249e-07  0:00:11  952
  1049  6.0309e-05  8.5497e-06  1.9247e-06  5.7894e-05  8.2137e-08  2.5263e-07  0:00:09  951
  1050  5.9194e-05  7.6343e-06  1.7692e-06  5.6823e-05  8.1309e-08  2.5250e-07  0:00:07  950
  1051  5.8158e-05  6.8495e-06  1.6259e-06  5.5828e-05  8.0518e-08  2.5206e-07  0:00:06  949
  1052  5.7194e-05  6.1787e-06  1.4981e-06  5.4902e-05  7.9813e-08  2.5141e-07  0:00:05  948
  1053  5.6298e-05  5.6067e-06  1.3891e-06  5.4041e-05  7.9223e-08  2.5042e-07  0:00:04  947
  1054  5.5465e-05  5.1197e-06  1.3010e-06  5.3241e-05  7.8708e-08  2.4910e-07  0:00:03  946

  iter  continuity  x-velocity  y-velocity      energy           k     epsilon     time/iter
  1055  5.4693e-05  4.7057e-06  1.2345e-06  5.2499e-05  7.8281e-08  2.4748e-07  0:03:11  945
  1056  5.3978e-05  4.3541e-06  1.1889e-06  5.1812e-05  7.7963e-08  2.4555e-07  0:02:33  944
  1057  5.3320e-05  4.0556e-06  1.1619e-06  5.1180e-05  7.7771e-08  2.4327e-07  0:02:02  943
  1058  5.2715e-05  3.8020e-06  1.1508e-06  5.0599e-05  7.7632e-08  2.4065e-07  0:01:38  942
  1059  5.2162e-05  3.5865e-06  1.1524e-06  5.0068e-05  7.7568e-08  2.3771e-07  0:01:18  941
  1060  5.1660e-05  3.4031e-06  1.1636e-06  4.9587e-05  7.7536e-08  2.3444e-07  0:01:02  940
  1061  5.1207e-05  3.2466e-06  1.1819e-06  4.9152e-05  7.7515e-08  2.3087e-07  0:00:50  939
  1062  5.0802e-05  3.1126e-06  1.2051e-06  4.8764e-05  7.7506e-08  2.2700e-07  0:00:40  938
  1063  5.0444e-05  2.9976e-06  1.2316e-06  4.8420e-05  7.7518e-08  2.2286e-07  0:00:32  937
  1064  5.0130e-05  2.8984e-06  1.2600e-06  4.8119e-05  7.7554e-08  2.1845e-07  0:00:25  936
  1065  4.9861e-05  2.8126e-06  1.2896e-06  4.7861e-05  7.7608e-08  2.1378e-07  0:00:20  935

  iter  continuity  x-velocity  y-velocity      energy           k     epsilon     time/iter
  1066  4.9634e-05  2.7383e-06  1.3196e-06  4.7644e-05  7.7678e-08  2.0890e-07  0:00:16  934
  1067  4.9448e-05  2.6740e-06  1.3496e-06  4.7466e-05  7.7738e-08  2.0378e-07  0:00:13  933
  1068  4.9303e-05  2.6183e-06  1.3793e-06  4.7327e-05  7.7817e-08  1.9848e-07  0:00:10  932
  1069  4.9197e-05  2.5704e-06  1.4085e-06  4.7226e-05  7.7911e-08  1.9304e-07  0:00:08  931
  1070  4.9128e-05  2.5295e-06  1.4369e-06  4.7161e-05  7.8019e-08  1.8750e-07  0:00:07  930
  1071  4.9097e-05  2.4953e-06  1.4645e-06  4.7131e-05  7.8134e-08  1.8187e-07  0:00:05  929
  1072  4.9102e-05  2.4672e-06  1.4911e-06  4.7137e-05  7.8260e-08  1.7618e-07  0:00:04  928
  1073  4.9141e-05  2.4450e-06  1.5167e-06  4.7175e-05  7.8396e-08  1.7049e-07  0:00:03  927
  1074  4.9214e-05  2.4282e-06  1.5412e-06  4.7246e-05  7.8541e-08  1.6482e-07  0:03:08  926
  1075  4.9320e-05  2.4167e-06  1.5646e-06  4.7349e-05  7.8701e-08  1.5964e-07  0:02:30  925
  1076  4.9457e-05  2.4102e-06  1.5868e-06  4.7481e-05  7.8872e-08  1.5452e-07  0:02:00  924

  iter  continuity  x-velocity  y-velocity      energy           k     epsilon     time/iter
  1077  4.9625e-05  2.4085e-06  1.6078e-06  4.7643e-05  7.9049e-08  1.4952e-07  0:01:36  923
  1078  4.9822e-05  2.4114e-06  1.6276e-06  4.7833e-05  7.9235e-08  1.4464e-07  0:01:17  922
  1079  5.0047e-05  2.4187e-06  1.6462e-06  4.8050e-05  7.9442e-08  1.3992e-07  0:01:01  921
  1080  5.0299e-05  2.4300e-06  1.6637e-06  4.8293e-05  7.9668e-08  1.3553e-07  0:00:49  920
  1081  5.0577e-05  2.4453e-06  1.6799e-06  4.8560e-05  7.9912e-08  1.3173e-07  0:00:39  919
  1082  5.0878e-05  2.4641e-06  1.6949e-06  4.8850e-05  8.0170e-08  1.2886e-07  0:00:31  918
  1083  5.1217e-05  2.7247e-06  1.7086e-06  4.9176e-05  8.0442e-08  1.2639e-07  0:00:25  917
  1084  5.1598e-05  3.2710e-06  1.7198e-06  4.9544e-05  8.0713e-08  1.2431e-07  0:00:20  916
  1085  5.2034e-05  4.1118e-06  1.7271e-06  4.9964e-05  8.0983e-08  1.2327e-07  0:00:16  915
  1086  5.2521e-05  5.1017e-06  1.7307e-06  5.0432e-05  8.1292e-08  1.2303e-07  0:00:13  914
  1087  5.3055e-05  6.1796e-06  1.7330e-06  5.0946e-05  8.1667e-08  1.2346e-07  0:00:10  913

  iter  continuity  x-velocity  y-velocity      energy           k     epsilon     time/iter
  1088  5.3636e-05  7.3215e-06  1.7373e-06  5.1504e-05  8.2110e-08  1.2458e-07  0:00:08  912
  1089  5.4263e-05  8.5264e-06  1.7469e-06  5.2107e-05  8.2618e-08  1.2612e-07  0:00:07  911
  1090  5.4936e-05  9.8088e-06  1.7656e-06  5.2754e-05  8.3201e-08  1.2804e-07  0:00:05  910
  1091  5.5661e-05  1.1209e-05  1.8000e-06  5.3451e-05  8.3855e-08  1.3044e-07  0:00:04  909
  1092  5.6438e-05  1.2758e-05  1.8606e-06  5.4199e-05  8.4603e-08  1.3315e-07  0:00:03  908
  1093  5.7923e-05  1.5850e-05  1.9763e-06  5.5627e-05  8.5392e-08  1.3611e-07  0:00:03  907
  1094  5.9844e-05  1.9401e-05  2.0409e-06  5.7473e-05  8.6189e-08  1.3914e-07  0:00:02  906
  1095  6.1893e-05  2.3155e-05  2.0904e-06  5.9442e-05  8.7155e-08  1.4254e-07  0:03:03  905
  1096  6.2309e-05  2.2215e-05  2.2107e-06  5.9840e-05  8.8485e-08  1.4663e-07  0:02:26  904
  1097  6.2415e-05  2.1433e-05  2.2614e-06  5.9944e-05  8.9406e-08  1.4942e-07  0:01:57  903
  1098  6.2032e-05  1.9409e-05  2.3471e-06  5.9575e-05  9.0218e-08  1.5214e-07  0:01:33  902

  iter  continuity  x-velocity  y-velocity      energy           k     epsilon     time/iter
  1099  6.1728e-05  1.8053e-05  2.3778e-06  5.9282e-05  9.0386e-08  1.5353e-07  0:01:15  901
  1100  6.1841e-05  1.8256e-05  2.3432e-06  5.9393e-05  9.0443e-08  1.5435e-07  0:01:00  900
  1101  6.2728e-05  2.0142e-05  2.1475e-06  6.0245e-05  9.0585e-08  1.5526e-07  0:00:48  899
  1102  6.4654e-05  2.3304e-05  1.9268e-06  6.2097e-05  9.1188e-08  1.5688e-07  0:00:38  898
  1103  6.4855e-05  2.1507e-05  1.8964e-06  6.2287e-05  9.1648e-08  1.5822e-07  0:00:30  897
  1104  6.3943e-05  1.8531e-05  1.8877e-06  6.1410e-05  9.2080e-08  1.5947e-07  0:00:24  896
  1105  6.2507e-05  1.4083e-05  1.9121e-06  6.0030e-05  9.2780e-08  1.6096e-07  0:00:19  895
  1106  6.2014e-05  1.1504e-05  1.9426e-06  5.9557e-05  9.3486e-08  1.6228e-07  0:00:16  894
  1107  6.1916e-05  1.0005e-05  1.9689e-06  5.9463e-05  9.3997e-08  1.6314e-07  0:00:12  893
  1108  6.1989e-05  9.2178e-06  2.0174e-06  5.9534e-05  9.4354e-08  1.6376e-07  0:00:10  892
  1109  6.2102e-05  8.4953e-06  2.0904e-06  5.9643e-05  9.4500e-08  1.6397e-07  0:00:08  891

  iter  continuity  x-velocity  y-velocity      energy           k     epsilon     time/iter
  1110  6.2272e-05  8.1698e-06  2.1142e-06  5.9806e-05  9.4453e-08  1.6376e-07  0:00:06  890
  1111  6.2451e-05  8.0370e-06  2.0476e-06  5.9978e-05  9.4169e-08  1.6294e-07  0:00:05  889
  1112  6.2592e-05  7.9256e-06  1.9904e-06  6.0113e-05  9.3943e-08  1.6212e-07  0:00:04  888
  1113  6.2723e-05  7.8875e-06  1.9480e-06  6.0239e-05  9.3639e-08  1.6114e-07  0:03:01  887
  1114  6.2783e-05  7.3456e-06  1.9283e-06  6.0296e-05  9.3139e-08  1.5978e-07  0:02:24  886
  1115  6.2840e-05  7.3014e-06  1.8465e-06  6.0350e-05  9.2381e-08  1.5803e-07  0:01:55  885
  1116  6.2846e-05  7.3385e-06  1.7041e-06  6.0356e-05  9.1750e-08  1.5616e-07  0:01:32  884
  1117  6.2936e-05  7.7862e-06  1.6571e-06  6.0442e-05  9.1274e-08  1.5459e-07  0:01:14  883
  1118  6.2956e-05  7.9604e-06  1.6922e-06  6.0461e-05  9.0808e-08  1.5300e-07  0:00:59  882
  1119  6.2903e-05  7.9726e-06  1.7739e-06  6.0411e-05  9.0288e-08  1.5119e-07  0:00:47  881
  1120  6.2777e-05  7.8492e-06  1.8394e-06  6.0289e-05  8.9534e-08  1.4875e-07  0:00:38  880

  iter  continuity  x-velocity  y-velocity      energy           k     epsilon     time/iter
  1121  6.2691e-05  7.9709e-06  2.1716e-06  6.0206e-05  8.8621e-08  1.4738e-07  0:00:30  879
  1122  6.2763e-05  8.7890e-06  1.8766e-06  6.0275e-05  8.7600e-08  1.4475e-07  0:00:24  878
  1123  6.2807e-05  9.8941e-06  1.6631e-06  6.0317e-05  8.6663e-08  1.4158e-07  0:00:19  877
  1124  6.2562e-05  9.4523e-06  1.5468e-06  6.0081e-05  8.5622e-08  1.3871e-07  0:00:15  876
  1125  6.2148e-05  8.3089e-06  1.4908e-06  5.9683e-05  8.4486e-08  1.3622e-07  0:00:12  875
  1126  6.1668e-05  6.9383e-06  1.4721e-06  5.9222e-05  8.3340e-08  1.3405e-07  0:00:10  874
  1127  6.1221e-05  5.8205e-06  1.4565e-06  5.8792e-05  8.2097e-08  1.3185e-07  0:00:08  873
  1128  6.0807e-05  4.9753e-06  1.4326e-06  5.8394e-05  8.0780e-08  1.2957e-07  0:00:06  872
  1129  6.0410e-05  4.3791e-06  1.4022e-06  5.8012e-05  7.9437e-08  1.2729e-07  0:00:05  871
  1130  6.0013e-05  3.9626e-06  1.3685e-06  5.7631e-05  7.8069e-08  1.2513e-07  0:00:04  870
  1131  5.9609e-05  3.6788e-06  1.3329e-06  5.7242e-05  7.6712e-08  1.2310e-07  0:00:03  869

  iter  continuity  x-velocity  y-velocity      energy           k     epsilon     time/iter
  1132  5.9191e-05  3.4872e-06  1.2966e-06  5.6840e-05  7.5355e-08  1.2121e-07  0:00:03  868
  1133  5.8757e-05  3.3576e-06  1.2609e-06  5.6423e-05  7.3995e-08  1.1963e-07  0:00:02  867
  1134  5.8307e-05  3.2670e-06  1.2268e-06  5.5990e-05  7.2649e-08  1.1884e-07  0:02:55  866
  1135  5.7840e-05  3.2001e-06  1.1949e-06  5.5541e-05  7.1339e-08  1.1832e-07  0:02:20  865
  1136  5.7356e-05  3.1467e-06  1.1653e-06  5.5076e-05  7.0069e-08  1.1792e-07  0:01:52  864
  1137  5.6856e-05  3.1009e-06  1.1376e-06  5.4596e-05  6.8863e-08  1.1768e-07  0:01:29  863
  1138  5.6342e-05  3.0590e-06  1.1115e-06  5.4101e-05  6.7732e-08  1.1763e-07  0:01:11  862
  1139  5.5814e-05  3.0190e-06  1.0868e-06  5.3593e-05  6.6691e-08  1.1788e-07  0:00:57  861
  1140  5.5273e-05  2.9798e-06  1.0632e-06  5.3074e-05  6.5723e-08  1.1850e-07  0:00:46  860
  1141  5.4721e-05  2.9407e-06  1.0406e-06  5.2544e-05  6.4826e-08  1.1923e-07  0:00:36  859
  1142  5.4160e-05  2.9012e-06  1.0187e-06  5.2004e-05  6.3983e-08  1.2006e-07  0:00:29  858

  iter  continuity  x-velocity  y-velocity      energy           k     epsilon     time/iter
  1143  5.3591e-05  2.8616e-06  9.9760e-07  5.1457e-05  6.3200e-08  1.2102e-07  0:00:23  857
  1144  5.3015e-05  2.8216e-06  9.7728e-07  5.0903e-05  6.2454e-08  1.2204e-07  0:00:19  856
  1145  5.2433e-05  2.7812e-06  9.5764e-07  5.0344e-05  6.1748e-08  1.2310e-07  0:00:15  855
  1146  5.1848e-05  2.7406e-06  9.3861e-07  4.9782e-05  6.1049e-08  1.2423e-07  0:00:12  854
  1147  5.1260e-05  2.6995e-06  9.2015e-07  4.9217e-05  6.0400e-08  1.2538e-07  0:00:09  853
  1148  5.0670e-05  2.6582e-06  9.0226e-07  4.8651e-05  5.9791e-08  1.2653e-07  0:00:08  852
  1149  5.0081e-05  2.6167e-06  8.8494e-07  4.8085e-05  5.9201e-08  1.2766e-07  0:00:06  851
  1150  4.9494e-05  2.5751e-06  8.6844e-07  4.7520e-05  5.8638e-08  1.2879e-07  0:00:05  850
  1151  4.8910e-05  2.5334e-06  8.5278e-07  4.6959e-05  5.8096e-08  1.2987e-07  0:00:04  849
  1152  4.8329e-05  2.4917e-06  8.3769e-07  4.6401e-05  5.7570e-08  1.3087e-07  0:02:53  848
  1153  4.7754e-05  2.4502e-06  8.2336e-07  4.5848e-05  5.7071e-08  1.3179e-07  0:02:18  847

  iter  continuity  x-velocity  y-velocity      energy           k     epsilon     time/iter
  1154  4.7186e-05  2.4088e-06  8.0993e-07  4.5302e-05  5.6597e-08  1.3263e-07  0:01:50  846
  1155  4.6625e-05  2.3677e-06  7.9750e-07  4.4763e-05  5.6145e-08  1.3338e-07  0:01:28  845
  1156  4.6073e-05  2.3270e-06  7.8615e-07  4.4233e-05  5.5715e-08  1.3404e-07  0:01:10  844
  1157  4.5530e-05  2.2868e-06  7.7599e-07  4.3712e-05  5.5326e-08  1.3463e-07  0:00:56  843
  1158  4.4999e-05  2.2472e-06  7.6711e-07  4.3202e-05  5.4940e-08  1.3512e-07  0:00:45  842
  1159  4.4479e-05  2.2081e-06  7.5960e-07  4.2703e-05  5.4573e-08  1.3555e-07  0:00:36  841
  1160  4.3972e-05  2.1697e-06  7.5348e-07  4.2215e-05  5.4227e-08  1.3593e-07  0:00:29  840
  1161  4.3479e-05  2.1320e-06  7.4879e-07  4.1741e-05  5.3901e-08  1.3622e-07  0:00:23  839
  1162  4.2999e-05  2.0950e-06  7.4555e-07  4.1281e-05  5.3597e-08  1.3641e-07  0:00:18  838
  1163  4.2534e-05  2.0588e-06  7.4375e-07  4.0834e-05  5.3314e-08  1.3649e-07  0:00:15  837
  1164  4.2085e-05  2.0233e-06  7.4341e-07  4.0403e-05  5.3053e-08  1.3646e-07  0:00:12  836

  iter  continuity  x-velocity  y-velocity      energy           k     epsilon     time/iter
  1165  4.1652e-05  1.9886e-06  7.4450e-07  3.9986e-05  5.2820e-08  1.3631e-07  0:00:09  835
  1166  4.1235e-05  1.9548e-06  7.4694e-07  3.9586e-05  5.2669e-08  1.3605e-07  0:00:07  834
  1167  4.0835e-05  1.9220e-06  7.5072e-07  3.9202e-05  5.2586e-08  1.3567e-07  0:00:06  833
  1168  4.0453e-05  1.8900e-06  7.5578e-07  3.8835e-05  5.2544e-08  1.3518e-07  0:00:05  832
  1169  4.0088e-05  1.8590e-06  7.6206e-07  3.8485e-05  5.2559e-08  1.3458e-07  0:00:04  831
  1170  3.9741e-05  1.8290e-06  7.6947e-07  3.8152e-05  5.2618e-08  1.3387e-07  0:00:03  830
  1171  3.9412e-05  1.7999e-06  7.7792e-07  3.7836e-05  5.2732e-08  1.3305e-07  0:00:02  829
  1172  3.9101e-05  1.7717e-06  7.8732e-07  3.7537e-05  5.2856e-08  1.3211e-07  0:00:02  828
  1173  3.8808e-05  1.7446e-06  7.9754e-07  3.7256e-05  5.2994e-08  1.3107e-07  0:02:47  827
  1174  3.8534e-05  1.7184e-06  8.0847e-07  3.6993e-05  5.3142e-08  1.2993e-07  0:02:13  826
  1175  3.8278e-05  1.6933e-06  8.2003e-07  3.6747e-05  5.3320e-08  1.2871e-07  0:01:47  825

  iter  continuity  x-velocity  y-velocity      energy           k     epsilon     time/iter
  1176  3.8040e-05  1.6693e-06  8.3212e-07  3.6519e-05  5.3499e-08  1.2738e-07  0:01:25  824
  1177  3.7820e-05  1.6464e-06  8.4467e-07  3.6308e-05  5.3679e-08  1.2595e-07  0:01:08  823
  1178  3.7618e-05  1.6246e-06  8.5759e-07  3.6115e-05  5.3857e-08  1.2444e-07  0:00:54  822
  1179  3.7434e-05  1.6041e-06  8.7081e-07  3.5938e-05  5.4036e-08  1.2284e-07  0:00:43  821
  1180  3.7268e-05  1.5849e-06  8.8422e-07  3.5779e-05  5.4216e-08  1.2232e-07  0:00:35  820
  1181  3.7118e-05  1.5670e-06  8.9767e-07  3.5635e-05  5.4400e-08  1.2160e-07  0:00:28  819
  1182  3.6986e-05  1.5505e-06  9.1099e-07  3.5509e-05  5.4590e-08  1.2045e-07  0:00:22  818
  1183  3.6870e-05  1.5353e-06  9.2397e-07  3.5398e-05  5.4784e-08  1.1903e-07  0:00:18  817
  1184  3.6771e-05  1.5216e-06  9.3658e-07  3.5303e-05  5.4981e-08  1.1743e-07  0:00:14  816
  1185  3.6688e-05  1.5096e-06  9.4877e-07  3.5223e-05  5.5175e-08  1.1571e-07  0:00:11  815
  1186  3.6620e-05  1.4991e-06  9.6062e-07  3.5158e-05  5.5361e-08  1.1389e-07  0:00:09  814

  iter  continuity  x-velocity  y-velocity      energy           k     epsilon     time/iter
  1187  3.6567e-05  1.4903e-06  9.7217e-07  3.5107e-05  5.5538e-08  1.1200e-07  0:00:07  813
  1188  3.6528e-05  1.4832e-06  9.8349e-07  3.5071e-05  5.5705e-08  1.1007e-07  0:00:06  812
  1189  3.6504e-05  1.4778e-06  9.9457e-07  3.5048e-05  5.5858e-08  1.0812e-07  0:00:05  811
  1190  3.6494e-05  1.4741e-06  1.0054e-06  3.5039e-05  5.6001e-08  1.0616e-07  0:00:04  810
  1191  3.6497e-05  1.4722e-06  1.0158e-06  3.5042e-05  5.6134e-08  1.0421e-07  0:00:03  809
  1192  3.6513e-05  1.4721e-06  1.0258e-06  3.5057e-05  5.6257e-08  1.0229e-07  0:02:44  808
  1193  3.6541e-05  1.4737e-06  1.0352e-06  3.5084e-05  5.6367e-08  1.0044e-07  0:02:11  807
  1194  3.6580e-05  1.4770e-06  1.0440e-06  3.5122e-05  5.6466e-08  9.8658e-08  0:01:45  806
  1195  3.6630e-05  1.4821e-06  1.0520e-06  3.5171e-05  5.6554e-08  9.6951e-08  0:01:24  805
  1196  3.6691e-05  1.4887e-06  1.0592e-06  3.5230e-05  5.6637e-08  9.5299e-08  0:01:07  804
  1197  3.6762e-05  1.4970e-06  1.0655e-06  3.5298e-05  5.6716e-08  9.3830e-08  0:00:53  803

  iter  continuity  x-velocity  y-velocity      energy           k     epsilon     time/iter
  1198  3.6841e-05  1.5068e-06  1.0710e-06  3.5375e-05  5.6787e-08  9.2589e-08  0:00:43  802
  1199  3.6929e-05  1.5181e-06  1.0756e-06  3.5459e-05  5.6851e-08  9.1427e-08  0:00:34  801
  1200  3.7025e-05  1.5307e-06  1.0793e-06  3.5552e-05  5.6906e-08  9.0362e-08  0:00:27  800
  1201  3.7127e-05  1.5445e-06  1.0822e-06  3.5650e-05  5.6951e-08  8.9370e-08  0:00:22  799
  1202  3.7236e-05  1.5596e-06  1.0843e-06  3.5755e-05  5.6987e-08  8.8439e-08  0:00:17  798
  1203  3.7351e-05  1.5757e-06  1.0856e-06  3.5865e-05  5.7018e-08  8.7643e-08  0:00:14  797
  1204  3.7470e-05  1.5928e-06  1.0862e-06  3.5980e-05  5.7046e-08  8.7172e-08  0:00:11  796
  1205  3.7593e-05  1.6107e-06  1.0861e-06  3.6098e-05  5.7084e-08  8.6802e-08  0:00:09  795
  1206  3.7719e-05  1.6294e-06  1.0853e-06  3.6220e-05  5.7124e-08  8.6543e-08  0:00:07  794
  1207  3.7847e-05  1.6487e-06  1.0838e-06  3.6343e-05  5.7162e-08  8.6416e-08  0:00:06  793
  1208  3.7977e-05  1.6685e-06  1.0817e-06  3.6468e-05  5.7192e-08  8.6371e-08  0:00:05  792

  iter  continuity  x-velocity  y-velocity      energy           k     epsilon     time/iter
  1209  3.8108e-05  1.6887e-06  1.0790e-06  3.6594e-05  5.7222e-08  8.6374e-08  0:00:04  791
  1210  3.8239e-05  1.7092e-06  1.0757e-06  3.6720e-05  5.7253e-08  8.6448e-08  0:00:03  790
  1211  3.8369e-05  1.7299e-06  1.0718e-06  3.6845e-05  5.7278e-08  8.6584e-08  0:00:02  789
  1212  3.8497e-05  1.7507e-06  1.0674e-06  3.6968e-05  5.7292e-08  8.6771e-08  0:00:02  788
  1213  3.8623e-05  1.7714e-06  1.0626e-06  3.7089e-05  5.7299e-08  8.6970e-08  0:02:39  787
  1214  3.8746e-05  1.7920e-06  1.0572e-06  3.7207e-05  5.7304e-08  8.7187e-08  0:02:07  786
  1215  3.8864e-05  1.8123e-06  1.0515e-06  3.7321e-05  5.7290e-08  8.7411e-08  0:01:41  785
  1216  3.8978e-05  1.8324e-06  1.0453e-06  3.7431e-05  5.7260e-08  8.7643e-08  0:01:21  784
  1217  3.9087e-05  1.8520e-06  1.0388e-06  3.7535e-05  5.7211e-08  8.7860e-08  0:01:05  783
  1218  3.9189e-05  1.8711e-06  1.0319e-06  3.7634e-05  5.7140e-08  8.8049e-08  0:00:52  782
  1219  3.9284e-05  1.8896e-06  1.0247e-06  3.7725e-05  5.7046e-08  8.8185e-08  0:00:41  781

  iter  continuity  x-velocity  y-velocity      energy           k     epsilon     time/iter
  1220  3.9372e-05  1.9075e-06  1.0171e-06  3.7810e-05  5.6932e-08  8.8272e-08  0:00:33  780
  1221  3.9452e-05  1.9246e-06  1.0092e-06  3.7887e-05  5.6818e-08  8.8302e-08  0:00:26  779
  1222  3.9523e-05  1.9410e-06  1.0010e-06  3.7955e-05  5.6679e-08  8.8280e-08  0:00:21  778
  1223  3.9585e-05  1.9565e-06  9.9249e-07  3.8015e-05  5.6514e-08  8.8218e-08  0:00:17  777
  1224  3.9638e-05  1.9711e-06  9.8374e-07  3.8065e-05  5.6322e-08  8.8129e-08  0:00:13  776
  1225  3.9680e-05  1.9847e-06  9.7477e-07  3.8105e-05  5.6103e-08  8.7986e-08  0:00:11  775
  1226  3.9711e-05  1.9974e-06  9.6560e-07  3.8135e-05  5.5859e-08  8.7780e-08  0:00:09  774
  1227  3.9732e-05  2.0090e-06  9.5624e-07  3.8155e-05  5.5599e-08  8.7512e-08  0:00:07  773
  1228  3.9741e-05  2.0196e-06  9.4672e-07  3.8164e-05  5.5324e-08  8.7179e-08  0:00:05  772
  1229  3.9738e-05  2.0291e-06  9.3706e-07  3.8161e-05  5.5008e-08  8.6767e-08  0:00:04  771
  1230  3.9724e-05  2.0374e-06  9.2719e-07  3.8147e-05  5.4673e-08  8.6317e-08  0:00:04  770

  iter  continuity  x-velocity  y-velocity      energy           k     epsilon     time/iter
  1231  3.9697e-05  2.0447e-06  9.1716e-07  3.8122e-05  5.4315e-08  8.5824e-08  0:00:03  769
  1232  3.9658e-05  2.0508e-06  9.0698e-07  3.8084e-05  5.3933e-08  8.5287e-08  0:02:36  768
  1233  3.9607e-05  2.0557e-06  8.9670e-07  3.8035e-05  5.3538e-08  8.4707e-08  0:02:05  767
  1234  3.9544e-05  2.0595e-06  8.8635e-07  3.7974e-05  5.3130e-08  8.4125e-08  0:01:39  766
  1235  3.9468e-05  2.0622e-06  8.7598e-07  3.7901e-05  5.2700e-08  8.3545e-08  0:01:19  765
  1236  3.9379e-05  2.0637e-06  8.6559e-07  3.7816e-05  5.2248e-08  8.2935e-08  0:01:03  764
  1237  3.9279e-05  2.0641e-06  8.5522e-07  3.7719e-05  5.1774e-08  8.2302e-08  0:00:51  763
  1238  3.9166e-05  2.0634e-06  8.4487e-07  3.7611e-05  5.1284e-08  8.1645e-08  0:00:41  762
  1239  3.9041e-05  2.0615e-06  8.3455e-07  3.7491e-05  5.0775e-08  8.0974e-08  0:00:32  761
  1240  3.8905e-05  2.0586e-06  8.2426e-07  3.7360e-05  5.0253e-08  8.0302e-08  0:00:26  760
  1241  3.8756e-05  2.0546e-06  8.1401e-07  3.7217e-05  4.9720e-08  7.9640e-08  0:00:21  759

  iter  continuity  x-velocity  y-velocity      energy           k     epsilon     time/iter
  1242  3.8597e-05  2.0496e-06  8.0378e-07  3.7064e-05  4.9183e-08  7.8992e-08  0:00:17  758
  1243  3.8426e-05  2.0436e-06  7.9360e-07  3.6900e-05  4.8647e-08  7.8386e-08  0:00:13  757
  1244  3.8245e-05  2.0366e-06  7.8343e-07  3.6726e-05  4.8118e-08  7.7847e-08  0:00:11  756
  1245  3.8054e-05  2.0287e-06  7.7333e-07  3.6542e-05  4.7605e-08  7.7365e-08  0:00:08  755
  1246  3.7853e-05  2.0199e-06  7.6328e-07  3.6349e-05  4.7107e-08  7.7142e-08  0:00:07  754
  1247  3.7643e-05  2.0102e-06  7.5330e-07  3.6146e-05  4.6625e-08  7.7041e-08  0:00:05  753
  1248  3.7424e-05  1.9997e-06  7.4333e-07  3.5936e-05  4.6153e-08  7.6980e-08  0:00:04  752
  1249  3.7196e-05  1.9884e-06  7.3340e-07  3.5717e-05  4.5687e-08  7.6932e-08  0:00:03  751
  1250  3.6961e-05  1.9764e-06  7.2352e-07  3.5491e-05  4.5226e-08  7.6905e-08  0:00:03  750
  1251  3.6718e-05  1.9637e-06  7.1371e-07  3.5258e-05  4.4775e-08  7.6891e-08  0:00:02  749
  1252  3.6469e-05  1.9503e-06  7.0396e-07  3.5018e-05  4.4340e-08  7.6894e-08  0:02:31  748

  iter  continuity  x-velocity  y-velocity      energy           k     epsilon     time/iter
  1253  3.6213e-05  1.9363e-06  6.9432e-07  3.4773e-05  4.3912e-08  7.6909e-08  0:02:01  747
  1254  3.5952e-05  1.9218e-06  6.8483e-07  3.4522e-05  4.3502e-08  7.6963e-08  0:01:37  746
  1255  3.5687e-05  1.9067e-06  6.7556e-07  3.4266e-05  4.3100e-08  7.7192e-08  0:01:17  745
  1256  3.5416e-05  1.8912e-06  6.6649e-07  3.4007e-05  4.2705e-08  7.7417e-08  0:01:02  744
  1257  3.5143e-05  1.8753e-06  6.5765e-07  3.3744e-05  4.2317e-08  7.7640e-08  0:00:49  743
  1258  3.4866e-05  1.8590e-06  6.4901e-07  3.3478e-05  4.1937e-08  7.7872e-08  0:00:39  742
  1259  3.4586e-05  1.8424e-06  6.4060e-07  3.3209e-05  4.1565e-08  7.8137e-08  0:00:31  741
  1260  3.4305e-05  1.8255e-06  6.3241e-07  3.2939e-05  4.1202e-08  7.8392e-08  0:00:25  740
  1261  3.4022e-05  1.8084e-06  6.2446e-07  3.2667e-05  4.0849e-08  7.8649e-08  0:00:20  739
  1262  3.3739e-05  1.7911e-06  6.1675e-07  3.2395e-05  4.0507e-08  7.8909e-08  0:00:16  738
  1263  3.3456e-05  1.7736e-06  6.0933e-07  3.2123e-05  4.0179e-08  7.9170e-08  0:00:13  737

  iter  continuity  x-velocity  y-velocity      energy           k     epsilon     time/iter
  1264  3.3173e-05  1.7560e-06  6.0218e-07  3.1851e-05  3.9862e-08  7.9436e-08  0:00:10  736
  1265  3.2891e-05  1.7384e-06  5.9536e-07  3.1580e-05  3.9554e-08  7.9715e-08  0:00:08  735
  1266  3.2611e-05  1.7207e-06  5.8886e-07  3.1311e-05  3.9257e-08  7.9989e-08  0:00:07  734
  1267  3.2332e-05  1.7031e-06  5.8275e-07  3.1043e-05  3.8969e-08  8.0257e-08  0:00:05  733
  1268  3.2057e-05  1.6854e-06  5.7702e-07  3.0779e-05  3.8694e-08  8.0505e-08  0:00:04  732
  1269  3.1784e-05  1.6679e-06  5.7171e-07  3.0517e-05  3.8429e-08  8.0742e-08  0:00:03  731
  1270  3.1515e-05  1.6505e-06  5.6683e-07  3.0258e-05  3.8176e-08  8.0972e-08  0:00:03  730
  1271  3.1250e-05  1.6333e-06  5.6241e-07  3.0004e-05  3.7933e-08  8.1175e-08  0:00:02  729
  1272  3.0989e-05  1.6162e-06  5.5844e-07  2.9753e-05  3.7704e-08  8.1346e-08  0:00:02  728
  1273  3.0733e-05  1.5993e-06  5.5496e-07  2.9508e-05  3.7489e-08  8.1481e-08  0:02:27  727
  1274  3.0483e-05  1.5827e-06  5.5196e-07  2.9267e-05  3.7285e-08  8.1585e-08  0:01:57  726

  iter  continuity  x-velocity  y-velocity      energy           k     epsilon     time/iter
  1275  3.0237e-05  1.5663e-06  5.4946e-07  2.9031e-05  3.7094e-08  8.1649e-08  0:01:34  725
  1276  2.9998e-05  1.5502e-06  5.4745e-07  2.8801e-05  3.6915e-08  8.1675e-08  0:01:15  724
  1277  2.9765e-05  1.5345e-06  5.4596e-07  2.8577e-05  3.6747e-08  8.1661e-08  0:01:00  723
  1278  2.9538e-05  1.5190e-06  5.4496e-07  2.8359e-05  3.6590e-08  8.1605e-08  0:00:48  722
  1279  2.9317e-05  1.5040e-06  5.4446e-07  2.8147e-05  3.6446e-08  8.1509e-08  0:00:38  721
  1280  2.9104e-05  1.4893e-06  5.4443e-07  2.7942e-05  3.6319e-08  8.1368e-08  0:00:30  720
  1281  2.8897e-05  1.4751e-06  5.4486e-07  2.7744e-05  3.6209e-08  8.1189e-08  0:00:24  719
  1282  2.8698e-05  1.4612e-06  5.4572e-07  2.7552e-05  3.6121e-08  8.0975e-08  0:00:19  718
  1283  2.8506e-05  1.4479e-06  5.4700e-07  2.7368e-05  3.6054e-08  8.0719e-08  0:00:16  717
  1284  2.8321e-05  1.4349e-06  5.4868e-07  2.7191e-05  3.6009e-08  8.0422e-08  0:00:12  716
  1285  2.8144e-05  1.4225e-06  5.5074e-07  2.7020e-05  3.5973e-08  8.0083e-08  0:00:10  715

  iter  continuity  x-velocity  y-velocity      energy           k     epsilon     time/iter
  1286  2.7974e-05  1.4105e-06  5.5317e-07  2.6857e-05  3.5947e-08  7.9708e-08  0:00:08  714
  1287  2.7812e-05  1.3990e-06  5.5596e-07  2.6702e-05  3.5930e-08  7.9297e-08  0:00:06  713
  1288  2.7657e-05  1.3881e-06  5.5909e-07  2.6553e-05  3.5924e-08  7.8850e-08  0:00:05  712
  1289  2.7510e-05  1.3777e-06  5.6253e-07  2.6412e-05  3.5933e-08  7.8369e-08  0:00:04  711
  1290  2.7371e-05  1.3678e-06  5.6625e-07  2.6278e-05  3.5955e-08  7.7857e-08  0:00:03  710
  1291  2.7239e-05  1.3585e-06  5.7023e-07  2.6152e-05  3.5984e-08  7.7315e-08  0:00:03  709
  1292  2.7114e-05  1.3498e-06  5.7442e-07  2.6032e-05  3.6022e-08  7.6743e-08  0:02:24  708
  1293  2.6997e-05  1.3416e-06  5.7880e-07  2.5920e-05  3.6065e-08  7.6144e-08  0:01:55  707
  1294  2.6888e-05  1.3340e-06  5.8332e-07  2.5815e-05  3.6115e-08  7.5528e-08  0:01:32  706
  1295  2.6785e-05  1.3270e-06  5.8798e-07  2.5717e-05  3.6167e-08  7.4884e-08  0:01:13  705
  1296  2.6690e-05  1.3206e-06  5.9273e-07  2.5625e-05  3.6222e-08  7.4217e-08  0:00:59  704

  iter  continuity  x-velocity  y-velocity      energy           k     epsilon     time/iter
  1297  2.6601e-05  1.3148e-06  5.9758e-07  2.5540e-05  3.6277e-08  7.3530e-08  0:00:47  703
  1298  2.6519e-05  1.3096e-06  6.0249e-07  2.5462e-05  3.6333e-08  7.2826e-08  0:00:37  702
  1299  2.6444e-05  1.3050e-06  6.0743e-07  2.5390e-05  3.6390e-08  7.2110e-08  0:00:30  701
  1300  2.6376e-05  1.3010e-06  6.1234e-07  2.5324e-05  3.6449e-08  7.1383e-08  0:00:24  700
  1301  2.6313e-05  1.2976e-06  6.1716e-07  2.5264e-05  3.6508e-08  7.0652e-08  0:00:19  699
  1302  2.6257e-05  1.2947e-06  6.2185e-07  2.5210e-05  3.6568e-08  6.9927e-08  0:00:15  698
  1303  2.6206e-05  1.2925e-06  6.2637e-07  2.5162e-05  3.6628e-08  6.9222e-08  0:00:12  697
  1304  2.6162e-05  1.2908e-06  6.3067e-07  2.5119e-05  3.6688e-08  6.8521e-08  0:00:10  696
  1305  2.6122e-05  1.2898e-06  6.3476e-07  2.5081e-05  3.6748e-08  6.7826e-08  0:00:08  695
  1306  2.6088e-05  1.2892e-06  6.3860e-07  2.5048e-05  3.6806e-08  6.7136e-08  0:00:06  694
  1307  2.6058e-05  1.2892e-06  6.4220e-07  2.5020e-05  3.6863e-08  6.6450e-08  0:00:05  693

  iter  continuity  x-velocity  y-velocity      energy           k     epsilon     time/iter
  1308  2.6034e-05  1.2898e-06  6.4555e-07  2.4997e-05  3.6917e-08  6.5772e-08  0:00:04  692
  1309  2.6013e-05  1.2908e-06  6.4866e-07  2.4978e-05  3.6968e-08  6.5104e-08  0:00:03  691
  1310  2.5997e-05  1.2924e-06  6.5153e-07  2.4962e-05  3.7017e-08  6.4443e-08  0:00:03  690
  1311  2.5985e-05  1.2944e-06  6.5416e-07  2.4950e-05  3.7063e-08  6.3817e-08  0:00:02  689
  1312  2.5976e-05  1.2968e-06  6.5653e-07  2.4942e-05  3.7105e-08  6.3288e-08  0:02:19  688
  1313  2.5971e-05  1.2997e-06  6.5865e-07  2.4937e-05  3.7145e-08  6.2790e-08  0:01:51  687
  1314  2.5969e-05  1.3030e-06  6.6049e-07  2.4935e-05  3.7185e-08  6.2307e-08  0:01:29  686
  1315  2.5969e-05  1.3066e-06  6.6208e-07  2.4936e-05  3.7220e-08  6.1837e-08  0:01:11  685
  1316  2.5972e-05  1.3106e-06  6.6338e-07  2.4938e-05  3.7249e-08  6.1378e-08  0:00:57  684
  1317  2.5977e-05  1.3149e-06  6.6441e-07  2.4943e-05  3.7273e-08  6.0930e-08  0:00:45  683
  1318  2.5984e-05  1.3194e-06  6.6516e-07  2.4950e-05  3.7291e-08  6.0494e-08  0:00:36  682

  iter  continuity  x-velocity  y-velocity      energy           k     epsilon     time/iter
  1319  2.5992e-05  1.3243e-06  6.6562e-07  2.4958e-05  3.7304e-08  6.0076e-08  0:00:29  681
  1320  2.6002e-05  1.3293e-06  6.6580e-07  2.4967e-05  3.7312e-08  5.9674e-08  0:00:23  680
  1321  2.6012e-05  1.3346e-06  6.6571e-07  2.4978e-05  3.7315e-08  5.9294e-08  0:00:18  679
  1322  2.6023e-05  1.3399e-06  6.6532e-07  2.4989e-05  3.7313e-08  5.8926e-08  0:00:15  678
  1323  2.6035e-05  1.3455e-06  6.6466e-07  2.5000e-05  3.7303e-08  5.8570e-08  0:00:12  677
  1324  2.6046e-05  1.3511e-06  6.6372e-07  2.5011e-05  3.7285e-08  5.8261e-08  0:00:09  676
  1325  2.6058e-05  1.3568e-06  6.6250e-07  2.5022e-05  3.7260e-08  5.8007e-08  0:00:08  675
  1326  2.6068e-05  1.3625e-06  6.6100e-07  2.5032e-05  3.7226e-08  5.7781e-08  0:00:06  674
  1327  2.6078e-05  1.3682e-06  6.5924e-07  2.5042e-05  3.7183e-08  5.7566e-08  0:00:05  673
  1328  2.6087e-05  1.3738e-06  6.5720e-07  2.5051e-05  3.7133e-08  5.7358e-08  0:00:04  672
  1329  2.6095e-05  1.3795e-06  6.5491e-07  2.5058e-05  3.7075e-08  5.7161e-08  0:00:03  671

  iter  continuity  x-velocity  y-velocity      energy           k     epsilon     time/iter
  1330  2.6101e-05  1.3850e-06  6.5236e-07  2.5064e-05  3.7008e-08  5.6968e-08  0:00:02  670
  1331  2.6105e-05  1.3904e-06  6.4957e-07  2.5068e-05  3.6933e-08  5.6785e-08  0:02:16  669
  1332  2.6107e-05  1.3957e-06  6.4654e-07  2.5070e-05  3.6849e-08  5.6609e-08  0:01:48  668
  1333  2.6107e-05  1.4008e-06  6.4330e-07  2.5070e-05  3.6755e-08  5.6434e-08  0:01:27  667
  1334  2.6104e-05  1.4057e-06  6.3984e-07  2.5067e-05  3.6654e-08  5.6265e-08  0:01:09  666
  1335  2.6099e-05  1.4104e-06  6.3618e-07  2.5062e-05  3.6544e-08  5.6096e-08  0:00:55  665
  1336  2.6090e-05  1.4148e-06  6.3233e-07  2.5054e-05  3.6433e-08  5.5928e-08  0:00:44  664
  1337  2.6078e-05  1.4190e-06  6.2830e-07  2.5042e-05  3.6313e-08  5.5760e-08  0:00:35  663
  1338  2.6063e-05  1.4230e-06  6.2410e-07  2.5028e-05  3.6179e-08  5.5582e-08  0:00:28  662
  1339  2.6045e-05  1.4266e-06  6.1975e-07  2.5010e-05  3.6037e-08  5.5397e-08  0:00:23  661
  1340  2.6022e-05  1.4299e-06  6.1523e-07  2.4989e-05  3.5886e-08  5.5206e-08  0:00:18  660

  iter  continuity  x-velocity  y-velocity      energy           k     epsilon     time/iter
  1341  2.5996e-05  1.4329e-06  6.1058e-07  2.4964e-05  3.5726e-08  5.5011e-08  0:00:14  659
  1342  2.5967e-05  1.4356e-06  6.0580e-07  2.4935e-05  3.5557e-08  5.4811e-08  0:00:11  658
  1343  2.5933e-05  1.4379e-06  6.0086e-07  2.4902e-05  3.5382e-08  5.4609e-08  0:00:09  657
  1344  2.5895e-05  1.4398e-06  5.9571e-07  2.4866e-05  3.5205e-08  5.4408e-08  0:00:07  656
  1345  2.5852e-05  1.4415e-06  5.9068e-07  2.4825e-05  3.5021e-08  5.4207e-08  0:00:06  655
  1346  2.5806e-05  1.4427e-06  5.8556e-07  2.4780e-05  3.4830e-08  5.4004e-08  0:00:05  654
  1347  2.5755e-05  1.4436e-06  5.8038e-07  2.4732e-05  3.4631e-08  5.3796e-08  0:00:04  653
  1348  2.5700e-05  1.4441e-06  5.7514e-07  2.4678e-05  3.4426e-08  5.3585e-08  0:00:03  652
  1349  2.5640e-05  1.4442e-06  5.6987e-07  2.4621e-05  3.4214e-08  5.3373e-08  0:00:02  651
  1350  2.5576e-05  1.4440e-06  5.6455e-07  2.4560e-05  3.3997e-08  5.3162e-08  0:00:02  650
  1351  2.5508e-05  1.4433e-06  5.5920e-07  2.4494e-05  3.3781e-08  5.2953e-08  0:02:11  649

  iter  continuity  x-velocity  y-velocity      energy           k     epsilon     time/iter
  1352  2.5435e-05  1.4423e-06  5.5382e-07  2.4424e-05  3.3565e-08  5.2745e-08  0:01:45  648
  1353  2.5358e-05  1.4409e-06  5.4843e-07  2.4350e-05  3.3344e-08  5.2548e-08  0:01:24  647
  1354  2.5276e-05  1.4391e-06  5.4522e-07  2.4272e-05  3.3119e-08  5.2392e-08  0:01:07  646
  1355  2.5191e-05  1.4369e-06  5.3817e-07  2.4190e-05  3.2891e-08  5.2269e-08  0:00:53  645
  1356  2.5101e-05  1.4344e-06  5.3235e-07  2.4103e-05  3.2660e-08  5.2158e-08  0:00:43  644
  1357  2.5007e-05  1.4316e-06  5.2687e-07  2.4013e-05  3.2426e-08  5.2056e-08  0:00:34  643
  1358  2.4910e-05  1.4283e-06  5.2150e-07  2.3919e-05  3.2191e-08  5.1961e-08  0:00:27  642
  1359  2.4808e-05  1.4248e-06  5.1620e-07  2.3822e-05  3.1954e-08  5.1871e-08  0:00:22  641
  1360  2.4703e-05  1.4209e-06  5.1092e-07  2.3721e-05  3.1717e-08  5.1782e-08  0:00:17  640
  1361  2.4594e-05  1.4168e-06  5.0570e-07  2.3616e-05  3.1478e-08  5.1701e-08  0:00:14  639
  1362  2.4482e-05  1.4123e-06  5.0052e-07  2.3509e-05  3.1238e-08  5.1625e-08  0:00:11  638

  iter  continuity  x-velocity  y-velocity      energy           k     epsilon     time/iter
  1363  2.4367e-05  1.4076e-06  4.9540e-07  2.3398e-05  3.1001e-08  5.1552e-08  0:00:09  637
  1364  2.4249e-05  1.4026e-06  4.9033e-07  2.3284e-05  3.0766e-08  5.1484e-08  0:00:07  636
  1365  2.4127e-05  1.3973e-06  4.8535e-07  2.3167e-05  3.0533e-08  5.1419e-08  0:00:06  635
  1366  2.4003e-05  1.3918e-06  4.8043e-07  2.3048e-05  3.0301e-08  5.1357e-08  0:00:05  634
  1367  2.3877e-05  1.3861e-06  4.7560e-07  2.2927e-05  3.0073e-08  5.1296e-08  0:00:04  633
  1368  2.3748e-05  1.3802e-06  4.7087e-07  2.2803e-05  2.9846e-08  5.1239e-08  0:00:03  632
  1369  2.3617e-05  1.3740e-06  4.6624e-07  2.2677e-05  2.9623e-08  5.1184e-08  0:00:02  631
  1370  2.3484e-05  1.3677e-06  4.6172e-07  2.2549e-05  2.9403e-08  5.1139e-08  0:02:08  630
  1371  2.3350e-05  1.3612e-06  4.5732e-07  2.2420e-05  2.9186e-08  5.1159e-08  0:01:42  629
  1372  2.3214e-05  1.3545e-06  4.5303e-07  2.2290e-05  2.8973e-08  5.1179e-08  0:01:22  628
  1373  2.3076e-05  1.3476e-06  4.4887e-07  2.2158e-05  2.8763e-08  5.1198e-08  0:01:05  627

  iter  continuity  x-velocity  y-velocity      energy           k     epsilon     time/iter
  1374  2.2938e-05  1.3406e-06  4.4484e-07  2.2025e-05  2.8557e-08  5.1215e-08  0:00:52  626
  1375  2.2799e-05  1.3335e-06  4.4095e-07  2.1891e-05  2.8355e-08  5.1233e-08  0:00:42  625
  1376  2.2659e-05  1.3263e-06  4.3719e-07  2.1757e-05  2.8158e-08  5.1265e-08  0:00:33  624
  1377  2.2519e-05  1.3190e-06  4.3359e-07  2.1622e-05  2.7965e-08  5.1298e-08  0:00:27  623
  1378  2.2379e-05  1.3117e-06  4.3012e-07  2.1488e-05  2.7767e-08  5.1321e-08  0:00:21  622
  1379  2.2239e-05  1.3043e-06  4.2678e-07  2.1353e-05  2.7588e-08  5.1360e-08  0:00:17  621
  1380  2.2099e-05  1.2969e-06  4.2350e-07  2.1219e-05  2.7415e-08  5.1396e-08  0:00:14  620
  1381  2.1959e-05  1.2894e-06  4.2035e-07  2.1085e-05  2.7248e-08  5.1427e-08  0:00:11  619
  1382  2.1821e-05  1.2820e-06  4.1733e-07  2.0951e-05  2.7087e-08  5.1450e-08  0:00:09  618
  1383  2.1683e-05  1.2746e-06  4.1449e-07  2.0819e-05  2.6930e-08  5.1465e-08  0:00:07  617
  1384  2.1546e-05  1.2672e-06  4.1183e-07  2.0688e-05  2.6777e-08  5.1473e-08  0:00:05  616

  iter  continuity  x-velocity  y-velocity      energy           k     epsilon     time/iter
  1385  2.1411e-05  1.2599e-06  4.0938e-07  2.0558e-05  2.6629e-08  5.1471e-08  0:00:04  615
  1386  2.1277e-05  1.2526e-06  4.0713e-07  2.0429e-05  2.6486e-08  5.1458e-08  0:00:04  614
  1387  2.1144e-05  1.2454e-06  4.0511e-07  2.0302e-05  2.6348e-08  5.1435e-08  0:00:03  613
  1388  2.1014e-05  1.2383e-06  4.0331e-07  2.0176e-05  2.6215e-08  5.1402e-08  0:00:02  612
  1389  2.0885e-05  1.2312e-06  4.0175e-07  2.0052e-05  2.6087e-08  5.1358e-08  0:00:02  611
  1390  2.0758e-05  1.2242e-06  4.0039e-07  1.9931e-05  2.5966e-08  5.1301e-08  0:02:03  610
  1391  2.0634e-05  1.2173e-06  3.9925e-07  1.9811e-05  2.5852e-08  5.1233e-08  0:01:39  609
  1392  2.0512e-05  1.2106e-06  3.9829e-07  1.9694e-05  2.5745e-08  5.1152e-08  0:01:19  608
  1393  2.0392e-05  1.2039e-06  3.9752e-07  1.9579e-05  2.5643e-08  5.1058e-08  0:01:03  607
  1394  2.0275e-05  1.1974e-06  3.9692e-07  1.9467e-05  2.5548e-08  5.0953e-08  0:00:50  606
  1395  2.0161e-05  1.1909e-06  3.9650e-07  1.9357e-05  2.5456e-08  5.0832e-08  0:00:40  605

  iter  continuity  x-velocity  y-velocity      energy           k     epsilon     time/iter
  1396  2.0049e-05  1.1847e-06  3.9623e-07  1.9250e-05  2.5370e-08  5.0696e-08  0:00:32  604
  1397  1.9940e-05  1.1785e-06  3.9612e-07  1.9146e-05  2.5291e-08  5.0544e-08  0:00:26  603
  1398  1.9835e-05  1.1725e-06  3.9615e-07  1.9044e-05  2.5224e-08  5.0378e-08  0:00:20  602
  1399  1.9732e-05  1.1667e-06  3.9632e-07  1.8945e-05  2.5161e-08  5.0198e-08  0:00:16  601
  1400  1.9632e-05  1.1610e-06  3.9660e-07  1.8849e-05  2.5103e-08  5.0005e-08  0:00:13  600
  1401  1.9535e-05  1.1555e-06  3.9700e-07  1.8757e-05  2.5049e-08  4.9798e-08  0:00:10  599
  1402  1.9442e-05  1.1502e-06  3.9749e-07  1.8667e-05  2.4999e-08  4.9580e-08  0:00:08  598
  1403  1.9351e-05  1.1451e-06  3.9808e-07  1.8580e-05  2.4953e-08  4.9350e-08  0:00:07  597
  1404  1.9264e-05  1.1401e-06  3.9873e-07  1.8496e-05  2.4910e-08  4.9108e-08  0:00:05  596
  1405  1.9180e-05  1.1353e-06  3.9947e-07  1.8415e-05  2.4871e-08  4.8857e-08  0:00:04  595
  1406  1.9099e-05  1.1307e-06  4.0026e-07  1.8337e-05  2.4836e-08  4.8596e-08  0:00:03  594

  iter  continuity  x-velocity  y-velocity      energy           k     epsilon     time/iter
  1407  1.9021e-05  1.1263e-06  4.0113e-07  1.8263e-05  2.4803e-08  4.8325e-08  0:00:03  593
  1408  1.8946e-05  1.1221e-06  4.0203e-07  1.8191e-05  2.4774e-08  4.8046e-08  0:02:01  592
  1409  1.8874e-05  1.1181e-06  4.0300e-07  1.8122e-05  2.4749e-08  4.7761e-08  0:01:36  591
  1410  1.8806e-05  1.1143e-06  4.0399e-07  1.8056e-05  2.4727e-08  4.7469e-08  0:01:17  590
  1411  1.8740e-05  1.1107e-06  4.0503e-07  1.7993e-05  2.4707e-08  4.7172e-08  0:01:01  589
  1412  1.8677e-05  1.1073e-06  4.0608e-07  1.7933e-05  2.4689e-08  4.6870e-08  0:00:49  588
  1413  1.8617e-05  1.1041e-06  4.0717e-07  1.7875e-05  2.4673e-08  4.6564e-08  0:00:39  587
  1414  1.8560e-05  1.1011e-06  4.0825e-07  1.7821e-05  2.4659e-08  4.6253e-08  0:00:31  586
  1415  1.8506e-05  1.0983e-06  4.0935e-07  1.7769e-05  2.4646e-08  4.5940e-08  0:00:25  585
  1416  1.8454e-05  1.0957e-06  4.1043e-07  1.7719e-05  2.4635e-08  4.5626e-08  0:00:20  584
  1417  1.8405e-05  1.0936e-06  4.1151e-07  1.7672e-05  2.4625e-08  4.5311e-08  0:00:16  583

  iter  continuity  x-velocity  y-velocity      energy           k     epsilon     time/iter
  1418  1.8359e-05  1.0929e-06  4.1251e-07  1.7628e-05  2.4616e-08  4.4994e-08  0:00:13  582
  1419  1.8315e-05  1.0917e-06  4.1341e-07  1.7585e-05  2.4620e-08  4.4690e-08  0:00:10  581
  1420  1.8273e-05  1.0907e-06  4.1427e-07  1.7545e-05  2.4618e-08  4.4380e-08  0:00:08  580
  1421  1.8234e-05  1.0898e-06  4.1518e-07  1.7508e-05  2.4612e-08  4.4069e-08  0:00:06  579
  1422  1.8196e-05  1.0887e-06  4.1610e-07  1.7472e-05  2.4604e-08  4.3757e-08  0:00:05  578
  1423  1.8161e-05  1.0873e-06  4.1702e-07  1.7437e-05  2.4594e-08  4.3447e-08  0:00:04  577
  1424  1.8127e-05  1.0857e-06  4.1789e-07  1.7405e-05  2.4584e-08  4.3140e-08  0:00:03  576
  1425  1.8095e-05  1.0839e-06  4.1870e-07  1.7374e-05  2.4572e-08  4.2839e-08  0:00:03  575
  1426  1.8064e-05  1.0822e-06  4.1938e-07  1.7345e-05  2.4561e-08  4.2564e-08  0:00:02  574
  1427  1.8036e-05  1.0806e-06  4.1993e-07  1.7318e-05  2.4548e-08  4.2319e-08  0:00:02  573
  1428  1.8008e-05  1.0791e-06  4.2032e-07  1.7291e-05  2.4535e-08  4.2079e-08  0:00:01  572

  iter  continuity  x-velocity  y-velocity      energy           k     epsilon     time/iter
  1429  1.7982e-05  1.0779e-06  4.2058e-07  1.7266e-05  2.4520e-08  4.1843e-08  0:01:55  571
  1430  1.7957e-05  1.0770e-06  4.2067e-07  1.7242e-05  2.4505e-08  4.1612e-08  0:01:32  570
  1431  1.7932e-05  1.0763e-06  4.2064e-07  1.7219e-05  2.4489e-08  4.1386e-08  0:01:14  569
  1432  1.7909e-05  1.0760e-06  4.2048e-07  1.7197e-05  2.4472e-08  4.1162e-08  0:00:59  568
  1433  1.7887e-05  1.0758e-06  4.2021e-07  1.7175e-05  2.4452e-08  4.0942e-08  0:00:47  567
  1434  1.7865e-05  1.0759e-06  4.1984e-07  1.7154e-05  2.4432e-08  4.0728e-08  0:00:37  566
  1435  1.7844e-05  1.0761e-06  4.1939e-07  1.7134e-05  2.4410e-08  4.0519e-08  0:00:30  565
  1436  1.7823e-05  1.0765e-06  4.1884e-07  1.7114e-05  2.4385e-08  4.0314e-08  0:00:24  564
  1437  1.7802e-05  1.0769e-06  4.1822e-07  1.7094e-05  2.4358e-08  4.0114e-08  0:00:19  563
  1438  1.7781e-05  1.0774e-06  4.1751e-07  1.7074e-05  2.4329e-08  3.9920e-08  0:00:15  562
  1439  1.7760e-05  1.0780e-06  4.1673e-07  1.7054e-05  2.4297e-08  3.9730e-08  0:00:12  561

  iter  continuity  x-velocity  y-velocity      energy           k     epsilon     time/iter
  1440  1.7740e-05  1.0786e-06  4.1585e-07  1.7034e-05  2.4263e-08  3.9546e-08  0:00:10  560
  1441  1.7719e-05  1.0791e-06  4.1490e-07  1.7014e-05  2.4226e-08  3.9368e-08  0:00:08  559
  1442  1.7697e-05  1.0796e-06  4.1384e-07  1.6994e-05  2.4185e-08  3.9194e-08  0:00:06  558
  1443  1.7676e-05  1.0801e-06  4.1271e-07  1.6973e-05  2.4142e-08  3.9026e-08  0:00:05  557
  1444  1.7653e-05  1.0805e-06  4.1147e-07  1.6951e-05  2.4095e-08  3.8862e-08  0:00:04  556
  1445  1.7630e-05  1.0809e-06  4.1016e-07  1.6929e-05  2.4045e-08  3.8704e-08  0:00:03  555
  1446  1.7606e-05  1.0812e-06  4.0874e-07  1.6906e-05  2.3992e-08  3.8551e-08  0:00:03  554
  1447  1.7582e-05  1.0815e-06  4.0725e-07  1.6883e-05  2.3937e-08  3.8401e-08  0:00:02  553
  1448  1.7556e-05  1.0816e-06  4.0565e-07  1.6858e-05  2.3877e-08  3.8252e-08  0:01:52  552
  1449  1.7530e-05  1.0817e-06  4.0397e-07  1.6833e-05  2.3814e-08  3.8110e-08  0:01:29  551
  1450  1.7502e-05  1.0817e-06  4.0218e-07  1.6806e-05  2.3749e-08  3.7972e-08  0:01:11  550

  iter  continuity  x-velocity  y-velocity      energy           k     epsilon     time/iter
  1451  1.7473e-05  1.0816e-06  4.0033e-07  1.6779e-05  2.3683e-08  3.7837e-08  0:00:57  549
  1452  1.7443e-05  1.0814e-06  3.9838e-07  1.6750e-05  2.3614e-08  3.7705e-08  0:00:46  548
  1453  1.7412e-05  1.0812e-06  3.9638e-07  1.6720e-05  2.3542e-08  3.7577e-08  0:00:36  547
  1454  1.7379e-05  1.0808e-06  3.9430e-07  1.6688e-05  2.3466e-08  3.7451e-08  0:00:29  546
  1455  1.7345e-05  1.0803e-06  3.9217e-07  1.6655e-05  2.3387e-08  3.7330e-08  0:00:23  545
  1456  1.7309e-05  1.0797e-06  3.8997e-07  1.6621e-05  2.3304e-08  3.7212e-08  0:00:19  544
  1457  1.7272e-05  1.0790e-06  3.8773e-07  1.6586e-05  2.3218e-08  3.7098e-08  0:00:15  543
  1458  1.7234e-05  1.0781e-06  3.8544e-07  1.6548e-05  2.3129e-08  3.6986e-08  0:00:12  542
  1459  1.7193e-05  1.0772e-06  3.8311e-07  1.6510e-05  2.3037e-08  3.6876e-08  0:00:09  541
  1460  1.7152e-05  1.0761e-06  3.8073e-07  1.6470e-05  2.2942e-08  3.6767e-08  0:00:08  540
  1461  1.7108e-05  1.0749e-06  3.7832e-07  1.6428e-05  2.2844e-08  3.6661e-08  0:00:06  539

  iter  continuity  x-velocity  y-velocity      energy           k     epsilon     time/iter
  1462  1.7063e-05  1.0735e-06  3.7586e-07  1.6385e-05  2.2746e-08  3.6557e-08  0:00:05  538
  1463  1.7017e-05  1.0721e-06  3.7338e-07  1.6340e-05  2.2646e-08  3.6456e-08  0:00:04  537
  1464  1.6969e-05  1.0705e-06  3.7086e-07  1.6294e-05  2.2543e-08  3.6356e-08  0:00:03  536
  1465  1.6919e-05  1.0688e-06  3.6832e-07  1.6246e-05  2.2438e-08  3.6258e-08  0:00:02  535
  1466  1.6868e-05  1.0669e-06  3.6575e-07  1.6197e-05  2.2331e-08  3.6163e-08  0:00:02  534
  1467  1.6815e-05  1.0650e-06  3.6317e-07  1.6146e-05  2.2222e-08  3.6070e-08  0:00:02  533
  1468  1.6761e-05  1.0629e-06  3.6057e-07  1.6094e-05  2.2111e-08  3.5979e-08  0:00:01  532
  1469  1.6705e-05  1.0606e-06  3.5797e-07  1.6040e-05  2.1998e-08  3.5890e-08  0:01:47  531
  1470  1.6647e-05  1.0583e-06  3.5535e-07  1.5985e-05  2.1883e-08  3.5803e-08  0:01:26  530
  1471  1.6588e-05  1.0558e-06  3.5274e-07  1.5929e-05  2.1767e-08  3.5717e-08  0:01:08  529
  1472  1.6528e-05  1.0532e-06  3.5012e-07  1.5871e-05  2.1649e-08  3.5634e-08  0:00:55  528

  iter  continuity  x-velocity  y-velocity      energy           k     epsilon     time/iter
  1473  1.6467e-05  1.0505e-06  3.4752e-07  1.5812e-05  2.1531e-08  3.5552e-08  0:00:44  527
  1474  1.6404e-05  1.0477e-06  3.4492e-07  1.5751e-05  2.1410e-08  3.5469e-08  0:00:35  526
  1475  1.6340e-05  1.0447e-06  3.4234e-07  1.5690e-05  2.1290e-08  3.5387e-08  0:00:28  525
  1476  1.6274e-05  1.0417e-06  3.3976e-07  1.5627e-05  2.1170e-08  3.5306e-08  0:00:22  524
  1477  1.6208e-05  1.0386e-06  3.3722e-07  1.5563e-05  2.1051e-08  3.5226e-08  0:00:18  523
  1478  1.6140e-05  1.0353e-06  3.3468e-07  1.5498e-05  2.0932e-08  3.5148e-08  0:00:14  522
  1479  1.6071e-05  1.0320e-06  3.3218e-07  1.5432e-05  2.0812e-08  3.5072e-08  0:00:11  521
  1480  1.6002e-05  1.0285e-06  3.2970e-07  1.5365e-05  2.0693e-08  3.4997e-08  0:00:09  520
  1481  1.5931e-05  1.0250e-06  3.2727e-07  1.5298e-05  2.0574e-08  3.4922e-08  0:00:07  519
  1482  1.5860e-05  1.0214e-06  3.2486e-07  1.5229e-05  2.0456e-08  3.4849e-08  0:00:06  518
  1483  1.5788e-05  1.0177e-06  3.2251e-07  1.5160e-05  2.0338e-08  3.4775e-08  0:00:05  517

  iter  continuity  x-velocity  y-velocity      energy           k     epsilon     time/iter
  1484  1.5716e-05  1.0140e-06  3.2020e-07  1.5090e-05  2.0220e-08  3.4703e-08  0:00:04  516
  1485  1.5642e-05  1.0102e-06  3.1795e-07  1.5020e-05  2.0104e-08  3.4639e-08  0:00:03  515
  1486  1.5569e-05  1.0063e-06  3.1574e-07  1.4949e-05  1.9988e-08  3.4591e-08  0:00:02  514
  1487  1.5495e-05  1.0024e-06  3.1360e-07  1.4878e-05  1.9873e-08  3.4543e-08  0:01:44  513
  1488  1.5420e-05  9.9841e-07  3.1150e-07  1.4806e-05  1.9759e-08  3.4494e-08  0:01:23  512
  1489  1.5345e-05  9.9439e-07  3.0947e-07  1.4735e-05  1.9646e-08  3.4448e-08  0:01:07  511
  1490  1.5270e-05  9.9033e-07  3.0749e-07  1.4663e-05  1.9535e-08  3.4402e-08  0:00:53  510
  1491  1.5195e-05  9.8624e-07  3.0559e-07  1.4591e-05  1.9425e-08  3.4356e-08  0:00:42  509
  1492  1.5120e-05  9.8211e-07  3.0374e-07  1.4518e-05  1.9317e-08  3.4309e-08  0:00:34  508
  1493  1.5045e-05  9.7797e-07  3.0196e-07  1.4446e-05  1.9210e-08  3.4265e-08  0:00:27  507
  1494  1.4971e-05  9.7379e-07  3.0023e-07  1.4375e-05  1.9105e-08  3.4219e-08  0:00:22  506

  iter  continuity  x-velocity  y-velocity      energy           k     epsilon     time/iter
  1495  1.4896e-05  9.6962e-07  2.9859e-07  1.4303e-05  1.9002e-08  3.4172e-08  0:00:17  505
  1496  1.4822e-05  9.6543e-07  2.9699e-07  1.4231e-05  1.8900e-08  3.4123e-08  0:00:14  504
  1497  1.4748e-05  9.6124e-07  2.9548e-07  1.4160e-05  1.8802e-08  3.4072e-08  0:00:11  503
  1498  1.4674e-05  9.5704e-07  2.9403e-07  1.4090e-05  1.8706e-08  3.4018e-08  0:00:09  502
  1499  1.4601e-05  9.5286e-07  2.9265e-07  1.4019e-05  1.8596e-08  3.3938e-08  0:00:07  501
  1500  1.4528e-05  9.4879e-07  2.9132e-07  1.3950e-05  1.8492e-08  3.3862e-08  0:00:06  500
  1501  1.4456e-05  9.4473e-07  2.9014e-07  1.3880e-05  1.8395e-08  3.3788e-08  0:00:04  499
  1502  1.4385e-05  9.4068e-07  2.8904e-07  1.3812e-05  1.8304e-08  3.3715e-08  0:00:04  498
  1503  1.4314e-05  9.3664e-07  2.8802e-07  1.3744e-05  1.8218e-08  3.3642e-08  0:00:03  497
  1504  1.4245e-05  9.3260e-07  2.8705e-07  1.3677e-05  1.8139e-08  3.3573e-08  0:00:02  496
  1505  1.4176e-05  9.2858e-07  2.8616e-07  1.3611e-05  1.8063e-08  3.3500e-08  0:00:02  495

  iter  continuity  x-velocity  y-velocity      energy           k     epsilon     time/iter
  1506  1.4108e-05  9.2458e-07  2.8531e-07  1.3546e-05  1.7990e-08  3.3423e-08  0:00:01  494
  1507  1.4040e-05  9.2061e-07  2.8452e-07  1.3481e-05  1.7920e-08  3.3342e-08  0:00:01  493
  1508  1.3974e-05  9.1666e-07  2.8376e-07  1.3418e-05  1.7852e-08  3.3256e-08  0:01:39  492
  1509  1.3909e-05  9.1275e-07  2.8305e-07  1.3355e-05  1.7786e-08  3.3167e-08  0:01:19  491
  1510  1.3845e-05  9.0888e-07  2.8237e-07  1.3294e-05  1.7722e-08  3.3072e-08  0:01:03  490
  1511  1.3782e-05  9.0506e-07  2.8173e-07  1.3233e-05  1.7661e-08  3.2973e-08  0:00:51  489
  1512  1.3720e-05  9.0128e-07  2.8113e-07  1.3174e-05  1.7603e-08  3.2869e-08  0:00:40  488
  1513  1.3660e-05  8.9756e-07  2.8059e-07  1.3116e-05  1.7546e-08  3.2760e-08  0:00:32  487
  1514  1.3600e-05  8.9389e-07  2.8008e-07  1.3058e-05  1.7492e-08  3.2647e-08  0:00:26  486
  1515  1.3542e-05  8.9028e-07  2.7964e-07  1.3002e-05  1.7440e-08  3.2529e-08  0:00:21  485
  1516  1.3485e-05  8.8672e-07  2.7924e-07  1.2948e-05  1.7391e-08  3.2407e-08  0:00:16  484

  iter  continuity  x-velocity  y-velocity      energy           k     epsilon     time/iter
  1517  1.3429e-05  8.8324e-07  2.7891e-07  1.2894e-05  1.7344e-08  3.2281e-08  0:00:13  483
  1518  1.3374e-05  8.7981e-07  2.7862e-07  1.2841e-05  1.7298e-08  3.2152e-08  0:00:10  482
  1519  1.3321e-05  8.7645e-07  2.7839e-07  1.2790e-05  1.7254e-08  3.2018e-08  0:00:08  481
  1520  1.3269e-05  8.7315e-07  2.7820e-07  1.2740e-05  1.7211e-08  3.1882e-08  0:00:07  480
  1521  1.3218e-05  8.6993e-07  2.7806e-07  1.2691e-05  1.7170e-08  3.1742e-08  0:00:05  479
  1522  1.3168e-05  8.6677e-07  2.7794e-07  1.2643e-05  1.7130e-08  3.1599e-08  0:00:04  478
  1523  1.3120e-05  8.6368e-07  2.7786e-07  1.2597e-05  1.7092e-08  3.1454e-08  0:00:03  477
  1524  1.3072e-05  8.6066e-07  2.7780e-07  1.2552e-05  1.7054e-08  3.1307e-08  0:00:03  476
  1525  1.3026e-05  8.5772e-07  2.7776e-07  1.2508e-05  1.7018e-08  3.1157e-08  0:00:02  475
  1526  1.2982e-05  8.5484e-07  2.7773e-07  1.2465e-05  1.6983e-08  3.1006e-08  0:00:02  474
  1527  1.2938e-05  8.5203e-07  2.7773e-07  1.2423e-05  1.6949e-08  3.0852e-08  0:01:36  473

  iter  continuity  x-velocity  y-velocity      energy           k     epsilon     time/iter
  1528  1.2895e-05  8.4929e-07  2.7772e-07  1.2382e-05  1.6916e-08  3.0696e-08  0:01:17  472
  1529  1.2854e-05  8.4663e-07  2.7772e-07  1.2342e-05  1.6884e-08  3.0540e-08  0:01:01  471
  1530  1.2814e-05  8.4402e-07  2.7771e-07  1.2304e-05  1.6853e-08  3.0382e-08  0:00:49  470
  1531  1.2775e-05  8.4149e-07  2.7772e-07  1.2266e-05  1.6823e-08  3.0224e-08  0:00:39  469
  1532  1.2737e-05  8.3903e-07  2.7773e-07  1.2230e-05  1.6793e-08  3.0064e-08  0:00:31  468
  1533  1.2700e-05  8.3665e-07  2.7775e-07  1.2194e-05  1.6764e-08  2.9905e-08  0:00:25  467
  1534  1.2664e-05  8.3433e-07  2.7778e-07  1.2159e-05  1.6735e-08  2.9744e-08  0:00:20  466
  1535  1.2629e-05  8.3209e-07  2.7781e-07  1.2126e-05  1.6707e-08  2.9584e-08  0:00:16  465
  1536  1.2594e-05  8.2987e-07  2.7783e-07  1.2093e-05  1.6679e-08  2.9425e-08  0:00:13  464
  1537  1.2561e-05  8.2771e-07  2.7788e-07  1.2061e-05  1.6652e-08  2.9266e-08  0:00:10  463
  1538  1.2529e-05  8.2557e-07  2.7791e-07  1.2030e-05  1.6624e-08  2.9109e-08  0:00:08  462

  iter  continuity  x-velocity  y-velocity      energy           k     epsilon     time/iter
  1539  1.2497e-05  8.2349e-07  2.7794e-07  1.1999e-05  1.6596e-08  2.8956e-08  0:00:06  461
  1540  1.2466e-05  8.2145e-07  2.7793e-07  1.1970e-05  1.6569e-08  2.8803e-08  0:00:05  460
  1541  1.2436e-05  8.1947e-07  2.7790e-07  1.1941e-05  1.6541e-08  2.8666e-08  0:00:04  459
  1542  1.2406e-05  8.1753e-07  2.7782e-07  1.1912e-05  1.6512e-08  2.8532e-08  0:00:03  458
  1543  1.2377e-05  8.1565e-07  2.7771e-07  1.1884e-05  1.6484e-08  2.8399e-08  0:00:03  457
  1544  1.2349e-05  8.1381e-07  2.7755e-07  1.1857e-05  1.6456e-08  2.8268e-08  0:00:02  456
  1545  1.2321e-05  8.1203e-07  2.7735e-07  1.1830e-05  1.6426e-08  2.8139e-08  0:00:02  455
  1546  1.2293e-05  8.1028e-07  2.7710e-07  1.1804e-05  1.6397e-08  2.8011e-08  0:00:01  454
  1547  1.2266e-05  8.0859e-07  2.7682e-07  1.1778e-05  1.6367e-08  2.7885e-08  0:00:01  453
  1548  1.2239e-05  8.0693e-07  2.7647e-07  1.1752e-05  1.6337e-08  2.7762e-08  0:01:31  452
  1549  1.2213e-05  8.0531e-07  2.7610e-07  1.1727e-05  1.6306e-08  2.7640e-08  0:01:13  451

  iter  continuity  x-velocity  y-velocity      energy           k     epsilon     time/iter
  1550  1.2187e-05  8.0372e-07  2.7567e-07  1.1702e-05  1.6272e-08  2.7516e-08  0:00:58  450
  1551  1.2161e-05  8.0216e-07  2.7520e-07  1.1677e-05  1.6239e-08  2.7396e-08  0:00:46  449
  1552  1.2135e-05  8.0062e-07  2.7467e-07  1.1652e-05  1.6205e-08  2.7279e-08  0:00:37  448
  1553  1.2109e-05  7.9910e-07  2.7409e-07  1.1628e-05  1.6172e-08  2.7164e-08  0:00:30  447
  1554  1.2084e-05  7.9755e-07  2.7338e-07  1.1603e-05  1.6137e-08  2.7052e-08  0:00:24  446
  1555  1.2058e-05  7.9606e-07  2.7268e-07  1.1579e-05  1.6102e-08  2.6942e-08  0:00:19  445
  1556  1.2033e-05  7.9460e-07  2.7198e-07  1.1554e-05  1.6066e-08  2.6835e-08  0:00:15  444
  1557  1.2007e-05  7.9313e-07  2.7124e-07  1.1529e-05  1.6030e-08  2.6729e-08  0:00:12  443
  1558  1.1981e-05  7.9164e-07  2.7045e-07  1.1505e-05  1.5992e-08  2.6625e-08  0:00:10  442
  1559  1.1955e-05  7.9015e-07  2.6964e-07  1.1480e-05  1.5953e-08  2.6523e-08  0:00:08  441
  1560  1.1929e-05  7.8863e-07  2.6880e-07  1.1455e-05  1.5913e-08  2.6423e-08  0:00:06  440

  iter  continuity  x-velocity  y-velocity      energy           k     epsilon     time/iter
  1561  1.1903e-05  7.8711e-07  2.6794e-07  1.1429e-05  1.5872e-08  2.6324e-08  0:00:05  439
  1562  1.1876e-05  7.8557e-07  2.6704e-07  1.1404e-05  1.5829e-08  2.6227e-08  0:00:04  438
  1563  1.1849e-05  7.8402e-07  2.6613e-07  1.1378e-05  1.5786e-08  2.6133e-08  0:00:03  437
  1564  1.1822e-05  7.8245e-07  2.6518e-07  1.1352e-05  1.5742e-08  2.6040e-08  0:00:02  436
  1565  1.1794e-05  7.8086e-07  2.6422e-07  1.1325e-05  1.5698e-08  2.5948e-08  0:00:02  435
  1566  1.1766e-05  7.7924e-07  2.6322e-07  1.1298e-05  1.5652e-08  2.5859e-08  0:01:28  434
  1567  1.1738e-05  7.7759e-07  2.6220e-07  1.1271e-05  1.5605e-08  2.5772e-08  0:01:11  433
  1568  1.1709e-05  7.7592e-07  2.6114e-07  1.1243e-05  1.5557e-08  2.5687e-08  0:00:56  432
  1569  1.1680e-05  7.7422e-07  2.6006e-07  1.1215e-05  1.5508e-08  2.5604e-08  0:00:45  431
  1570  1.1650e-05  7.7249e-07  2.5895e-07  1.1186e-05  1.5457e-08  2.5523e-08  0:00:36  430
  1571  1.1619e-05  7.7072e-07  2.5782e-07  1.1157e-05  1.5406e-08  2.5442e-08  0:00:29  429

  iter  continuity  x-velocity  y-velocity      energy           k     epsilon     time/iter
  1572  1.1588e-05  7.6892e-07  2.5666e-07  1.1127e-05  1.5354e-08  2.5364e-08  0:00:23  428
  1573  1.1557e-05  7.6709e-07  2.5549e-07  1.1097e-05  1.5300e-08  2.5286e-08  0:00:18  427
  1574  1.1525e-05  7.6521e-07  2.5428e-07  1.1066e-05  1.5246e-08  2.5210e-08  0:00:15  426
  1575  1.1492e-05  7.6331e-07  2.5307e-07  1.1035e-05  1.5190e-08  2.5136e-08  0:00:12  425
  1576  1.1459e-05  7.6136e-07  2.5183e-07  1.1003e-05  1.5134e-08  2.5062e-08  0:00:09  424
  1577  1.1425e-05  7.5938e-07  2.5059e-07  1.0971e-05  1.5078e-08  2.4991e-08  0:00:07  423
  1578  1.1391e-05  7.5736e-07  2.4932e-07  1.0938e-05  1.5020e-08  2.4920e-08  0:00:06  422
  1579  1.1356e-05  7.5530e-07  2.4806e-07  1.0904e-05  1.4961e-08  2.4850e-08  0:00:05  421
  1580  1.1321e-05  7.5319e-07  2.4678e-07  1.0870e-05  1.4902e-08  2.4781e-08  0:00:04  420
  1581  1.1285e-05  7.5105e-07  2.4551e-07  1.0836e-05  1.4843e-08  2.4712e-08  0:00:03  419
  1582  1.1248e-05  7.4886e-07  2.4421e-07  1.0801e-05  1.4783e-08  2.4644e-08  0:00:02  418

  iter  continuity  x-velocity  y-velocity      energy           k     epsilon     time/iter
  1583  1.1211e-05  7.4664e-07  2.4292e-07  1.0765e-05  1.4722e-08  2.4578e-08  0:00:02  417
  1584  1.1173e-05  7.4436e-07  2.4161e-07  1.0729e-05  1.4661e-08  2.4511e-08  0:00:02  416
  1585  1.1135e-05  7.4205e-07  2.4031e-07  1.0692e-05  1.4599e-08  2.4446e-08  0:00:01  415
  1586  1.1096e-05  7.3969e-07  2.3899e-07  1.0655e-05  1.4537e-08  2.4381e-08  0:01:24  414
  1587  1.1057e-05  7.3729e-07  2.3769e-07  1.0617e-05  1.4474e-08  2.4317e-08  0:01:07  413
  1588  1.1017e-05  7.3485e-07  2.3637e-07  1.0579e-05  1.4411e-08  2.4254e-08  0:00:53  412
  1589  1.0977e-05  7.3238e-07  2.3507e-07  1.0540e-05  1.4348e-08  2.4191e-08  0:00:43  411
  1590  1.0937e-05  7.2985e-07  2.3376e-07  1.0501e-05  1.4285e-08  2.4129e-08  0:00:34  410
  1591  1.0896e-05  7.2730e-07  2.3247e-07  1.0462e-05  1.4221e-08  2.4067e-08  0:00:27  409
  1592  1.0854e-05  7.2471e-07  2.3117e-07  1.0422e-05  1.4157e-08  2.4006e-08  0:00:22  408
  1593  1.0812e-05  7.2209e-07  2.2990e-07  1.0382e-05  1.4093e-08  2.3945e-08  0:00:17  407

  iter  continuity  x-velocity  y-velocity      energy           k     epsilon     time/iter
  1594  1.0770e-05  7.1943e-07  2.2862e-07  1.0342e-05  1.4029e-08  2.3884e-08  0:00:14  406
  1595  1.0728e-05  7.1674e-07  2.2737e-07  1.0301e-05  1.3965e-08  2.3823e-08  0:00:11  405
  1596  1.0685e-05  7.1402e-07  2.2612e-07  1.0260e-05  1.3901e-08  2.3763e-08  0:00:09  404
  1597  1.0642e-05  7.1128e-07  2.2490e-07  1.0218e-05  1.3838e-08  2.3704e-08  0:00:07  403
  1598  1.0599e-05  7.0850e-07  2.2368e-07  1.0177e-05  1.3774e-08  2.3645e-08  0:00:06  402
  1599  1.0555e-05  7.0571e-07  2.2250e-07  1.0135e-05  1.3711e-08  2.3586e-08  0:00:04  401
  1600  1.0512e-05  7.0289e-07  2.2132e-07  1.0093e-05  1.3648e-08  2.3528e-08  0:00:04  400
  1601  1.0468e-05  7.0005e-07  2.2017e-07  1.0051e-05  1.3585e-08  2.3479e-08  0:00:03  399
  1602  1.0424e-05  6.9719e-07  2.1902e-07  1.0009e-05  1.3522e-08  2.3428e-08  0:00:02  398
  1603  1.0380e-05  6.9432e-07  2.1792e-07  9.9670e-06  1.3460e-08  2.3378e-08  0:00:02  397
  1604  1.0336e-05  6.9143e-07  2.1682e-07  9.9247e-06  1.3400e-08  2.3327e-08  0:00:01  396

  iter  continuity  x-velocity  y-velocity      energy           k     epsilon     time/iter
  1605  1.0292e-05  6.8853e-07  2.1577e-07  9.8825e-06  1.3339e-08  2.3274e-08  0:01:20  395
  1606  1.0248e-05  6.8562e-07  2.1473e-07  9.8403e-06  1.3278e-08  2.3221e-08  0:01:04  394
  1607  1.0204e-05  6.8270e-07  2.1375e-07  9.7981e-06  1.3218e-08  2.3168e-08  0:00:51  393
  1608  1.0161e-05  6.7977e-07  2.1277e-07  9.7561e-06  1.3157e-08  2.3113e-08  0:00:41  392
  1609  1.0117e-05  6.7685e-07  2.1183e-07  9.7141e-06  1.3098e-08  2.3058e-08  0:00:32  391
  1610  1.0073e-05  6.7391e-07  2.1088e-07  9.6723e-06  1.3039e-08  2.3002e-08  0:00:26  390
  1611  1.0030e-05  6.7098e-07  2.0997e-07  9.6306e-06  1.2981e-08  2.2947e-08  0:00:21  389
  1612  9.9867e-06  6.6804e-07  2.0906e-07  9.5891e-06  1.2924e-08  2.2891e-08  0:00:17  388
  1613  9.9438e-06  6.6512e-07  2.0818e-07  9.5479e-06  1.2868e-08  2.2833e-08  0:00:13  387
  1614  9.9011e-06  6.6219e-07  2.0730e-07  9.5069e-06  1.2812e-08  2.2775e-08  0:00:11  386
  1615  9.8586e-06  6.5928e-07  2.0646e-07  9.4661e-06  1.2758e-08  2.2715e-08  0:00:08  385

  iter  continuity  x-velocity  y-velocity      energy           k     epsilon     time/iter
  1616  9.8165e-06  6.5636e-07  2.0563e-07  9.4257e-06  1.2704e-08  2.2655e-08  0:00:07  384
  1617  9.7747e-06  6.5345e-07  2.0484e-07  9.3856e-06  1.2652e-08  2.2592e-08  0:00:05  383
  1618  9.7333e-06  6.5057e-07  2.0406e-07  9.3458e-06  1.2600e-08  2.2529e-08  0:00:04  382
  1619  9.6922e-06  6.4770e-07  2.0332e-07  9.3063e-06  1.2550e-08  2.2464e-08  0:00:03  381
  1620  9.6515e-06  6.4483e-07  2.0260e-07  9.2673e-06  1.2500e-08  2.2398e-08  0:00:03  380
  1621  9.6113e-06  6.4199e-07  2.0192e-07  9.2286e-06  1.2451e-08  2.2330e-08  0:00:02  379
  1622  9.5714e-06  6.3916e-07  2.0126e-07  9.1903e-06  1.2403e-08  2.2261e-08  0:00:02  378
  1623  9.5320e-06  6.3636e-07  2.0064e-07  9.1525e-06  1.2356e-08  2.2190e-08  0:00:01  377
  1624  9.4931e-06  6.3358e-07  2.0003e-07  9.1151e-06  1.2311e-08  2.2119e-08  0:00:01  376
  1625  9.4546e-06  6.3083e-07  1.9946e-07  9.0781e-06  1.2267e-08  2.2046e-08  0:00:01  375
  1626  9.4166e-06  6.2809e-07  1.9891e-07  9.0417e-06  1.2223e-08  2.1971e-08  0:01:15  374

  iter  continuity  x-velocity  y-velocity      energy           k     epsilon     time/iter
  1627  9.3791e-06  6.2539e-07  1.9839e-07  9.0057e-06  1.2180e-08  2.1895e-08  0:01:00  373
  1628  9.3421e-06  6.2270e-07  1.9787e-07  8.9701e-06  1.2139e-08  2.1818e-08  0:00:48  372
  1629  9.3056e-06  6.2005e-07  1.9739e-07  8.9351e-06  1.2097e-08  2.1740e-08  0:00:38  371
  1630  9.2697e-06  6.1741e-07  1.9692e-07  8.9006e-06  1.2057e-08  2.1660e-08  0:00:31  370
  1631  9.2342e-06  6.1481e-07  1.9648e-07  8.8665e-06  1.2018e-08  2.1579e-08  0:00:24  369
  1632  9.1993e-06  6.1224e-07  1.9603e-07  8.8330e-06  1.1979e-08  2.1497e-08  0:00:19  368
  1633  9.1649e-06  6.0970e-07  1.9563e-07  8.8000e-06  1.1941e-08  2.1415e-08  0:00:16  367
  1634  9.1310e-06  6.0718e-07  1.9521e-07  8.7675e-06  1.1904e-08  2.1331e-08  0:00:12  366
  1635  9.0977e-06  6.0470e-07  1.9483e-07  8.7355e-06  1.1868e-08  2.1246e-08  0:00:10  365
  1636  9.0649e-06  6.0224e-07  1.9445e-07  8.7040e-06  1.1832e-08  2.1160e-08  0:00:08  364
  1637  9.0326e-06  5.9983e-07  1.9409e-07  8.6730e-06  1.1798e-08  2.1074e-08  0:00:06  363

  iter  continuity  x-velocity  y-velocity      energy           k     epsilon     time/iter
  1638  9.0009e-06  5.9743e-07  1.9373e-07  8.6425e-06  1.1764e-08  2.0987e-08  0:00:05  362
  1639  8.9697e-06  5.9508e-07  1.9339e-07  8.6125e-06  1.1731e-08  2.0899e-08  0:00:04  361
  1640  8.9389e-06  5.9275e-07  1.9304e-07  8.5830e-06  1.1698e-08  2.0810e-08  0:00:03  360
  1641  8.9087e-06  5.9047e-07  1.9272e-07  8.5540e-06  1.1666e-08  2.0721e-08  0:00:03  359
  1642  8.8790e-06  5.8820e-07  1.9239e-07  8.5255e-06  1.1635e-08  2.0632e-08  0:00:02  358
  1643  8.8498e-06  5.8598e-07  1.9208e-07  8.4974e-06  1.1604e-08  2.0542e-08  0:00:02  357
  1644  8.8210e-06  5.8378e-07  1.9175e-07  8.4698e-06  1.1573e-08  2.0452e-08  0:00:01  356
  1645  8.7927e-06  5.8163e-07  1.9145e-07  8.4427e-06  1.1543e-08  2.0362e-08  0:00:01  355
  1646  8.7649e-06  5.7949e-07  1.9113e-07  8.4160e-06  1.1513e-08  2.0272e-08  0:01:12  354
  1647  8.7375e-06  5.7740e-07  1.9082e-07  8.3897e-06  1.1483e-08  2.0182e-08  0:00:57  353
  1648  8.7105e-06  5.7532e-07  1.9050e-07  8.3638e-06  1.1454e-08  2.0093e-08  0:00:46  352

  iter  continuity  x-velocity  y-velocity      energy           k     epsilon     time/iter
  1649  8.6840e-06  5.7329e-07  1.9019e-07  8.3383e-06  1.1425e-08  2.0005e-08  0:00:36  351
  1650  8.6579e-06  5.7128e-07  1.8987e-07  8.3132e-06  1.1396e-08  1.9916e-08  0:00:29  350
  1651  8.6321e-06  5.6930e-07  1.8955e-07  8.2885e-06  1.1368e-08  1.9828e-08  0:00:23  349
  1652  8.6067e-06  5.6734e-07  1.8922e-07  8.2641e-06  1.1339e-08  1.9740e-08  0:00:18  348
  1653  8.5817e-06  5.6542e-07  1.8889e-07  8.2401e-06  1.1311e-08  1.9652e-08  0:00:15  347
  1654  8.5570e-06  5.6352e-07  1.8854e-07  8.2164e-06  1.1283e-08  1.9569e-08  0:00:12  346
  1655  8.5326e-06  5.6164e-07  1.8820e-07  8.1930e-06  1.1255e-08  1.9488e-08  0:00:09  345
  1656  8.5085e-06  5.5979e-07  1.8784e-07  8.1698e-06  1.1227e-08  1.9408e-08  0:00:07  344
  1657  8.4847e-06  5.5796e-07  1.8748e-07  8.1470e-06  1.1199e-08  1.9328e-08  0:00:06  343
  1658  8.4611e-06  5.5615e-07  1.8710e-07  8.1244e-06  1.1171e-08  1.9249e-08  0:00:05  342
  1659  8.4378e-06  5.5437e-07  1.8673e-07  8.1020e-06  1.1143e-08  1.9170e-08  0:00:04  341

  iter  continuity  x-velocity  y-velocity      energy           k     epsilon     time/iter
  1660  8.4147e-06  5.5260e-07  1.8633e-07  8.0798e-06  1.1115e-08  1.9093e-08  0:00:03  340
  1661  8.3918e-06  5.5085e-07  1.8593e-07  8.0579e-06  1.1087e-08  1.9016e-08  0:00:02  339
  1662  8.3691e-06  5.4912e-07  1.8551e-07  8.0361e-06  1.1059e-08  1.8940e-08  0:00:02  338
  1663  8.3466e-06  5.4741e-07  1.8509e-07  8.0145e-06  1.1031e-08  1.8865e-08  0:00:02  337
  1664  8.3242e-06  5.4570e-07  1.8463e-07  7.9930e-06  1.1003e-08  1.8791e-08  0:00:01  336
  1665  8.3020e-06  5.4402e-07  1.8417e-07  7.9716e-06  1.0975e-08  1.8718e-08  0:01:08  335
  1666  8.2799e-06  5.4234e-07  1.8368e-07  7.9504e-06  1.0947e-08  1.8645e-08  0:00:54  334
  1667  8.2578e-06  5.4068e-07  1.8319e-07  7.9293e-06  1.0919e-08  1.8573e-08  0:00:43  333
  1668  8.2359e-06  5.3902e-07  1.8267e-07  7.9082e-06  1.0890e-08  1.8501e-08  0:00:34  332
  1669  8.2140e-06  5.3738e-07  1.8217e-07  7.8871e-06  1.0861e-08  1.8431e-08  0:00:28  331
  1670  8.1921e-06  5.3574e-07  1.8164e-07  7.8662e-06  1.0831e-08  1.8361e-08  0:00:22  330

  iter  continuity  x-velocity  y-velocity      energy           k     epsilon     time/iter
  1671  8.1703e-06  5.3412e-07  1.8112e-07  7.8452e-06  1.0801e-08  1.8292e-08  0:00:18  329
  1672  8.1484e-06  5.3249e-07  1.8057e-07  7.8242e-06  1.0771e-08  1.8224e-08  0:00:14  328
  1673  8.1266e-06  5.3087e-07  1.8004e-07  7.8033e-06  1.0741e-08  1.8157e-08  0:00:11  327
  1674  8.1047e-06  5.2925e-07  1.7948e-07  7.7823e-06  1.0710e-08  1.8091e-08  0:00:09  326
  1675  8.0828e-06  5.2763e-07  1.7893e-07  7.7612e-06  1.0679e-08  1.8025e-08  0:00:07  325
  1676  8.0609e-06  5.2601e-07  1.7835e-07  7.7402e-06  1.0648e-08  1.7961e-08  0:00:06  324
  1677  8.0388e-06  5.2440e-07  1.7778e-07  7.7190e-06  1.0616e-08  1.7897e-08  0:00:05  323
  1678  8.0167e-06  5.2278e-07  1.7717e-07  7.6978e-06  1.0584e-08  1.7834e-08  0:00:04  322
  1679  7.9945e-06  5.2116e-07  1.7657e-07  7.6765e-06  1.0552e-08  1.7772e-08  0:00:03  321
  1680  7.9722e-06  5.1953e-07  1.7594e-07  7.6550e-06  1.0519e-08  1.7711e-08  0:00:02  320
  1681  7.9498e-06  5.1790e-07  1.7531e-07  7.6335e-06  1.0486e-08  1.7650e-08  0:00:02  319

  iter  continuity  x-velocity  y-velocity      energy           k     epsilon     time/iter
  1682  7.9272e-06  5.1626e-07  1.7465e-07  7.6119e-06  1.0452e-08  1.7591e-08  0:00:01  318
  1683  7.9046e-06  5.1463e-07  1.7399e-07  7.5901e-06  1.0418e-08  1.7532e-08  0:00:01  317
  1684  7.8817e-06  5.1297e-07  1.7332e-07  7.5682e-06  1.0384e-08  1.7474e-08  0:00:01  316
  1685  7.8588e-06  5.1132e-07  1.7264e-07  7.5461e-06  1.0350e-08  1.7417e-08  0:00:01  315
  1686  7.8356e-06  5.0965e-07  1.7194e-07  7.5239e-06  1.0315e-08  1.7360e-08  0:01:03  314
  1687  7.8124e-06  5.0798e-07  1.7125e-07  7.5016e-06  1.0280e-08  1.7304e-08  0:00:51  313
  1688  7.7889e-06  5.0629e-07  1.7054e-07  7.4790e-06  1.0244e-08  1.7249e-08  0:00:40  312
  1689  7.7653e-06  5.0460e-07  1.6984e-07  7.4563e-06  1.0209e-08  1.7195e-08  0:00:32  311
  1690  7.7415e-06  5.0289e-07  1.6911e-07  7.4335e-06  1.0173e-08  1.7141e-08  0:00:26  310
  1691  7.7175e-06  5.0118e-07  1.6840e-07  7.4104e-06  1.0137e-08  1.7088e-08  0:00:20  309
  1692  7.6933e-06  4.9945e-07  1.6766e-07  7.3872e-06  1.0100e-08  1.7036e-08  0:00:16  308

  iter  continuity  x-velocity  y-velocity      energy           k     epsilon     time/iter
  1693  7.6690e-06  4.9771e-07  1.6692e-07  7.3639e-06  1.0063e-08  1.6984e-08  0:00:13  307
  1694  7.6444e-06  4.9594e-07  1.6619e-07  7.3403e-06  1.0027e-08  1.6933e-08  0:00:10  306
  1695  7.6197e-06  4.9418e-07  1.6546e-07  7.3166e-06  9.9895e-09  1.6882e-08  0:00:08  305
  1696  7.5948e-06  4.9241e-07  1.6471e-07  7.2927e-06  9.9522e-09  1.6832e-08  0:00:07  304
  1697  7.5698e-06  4.9064e-07  1.6397e-07  7.2686e-06  9.9157e-09  1.6782e-08  0:00:05  303
  1698  7.5445e-06  4.8884e-07  1.6321e-07  7.2444e-06  9.8793e-09  1.6733e-08  0:00:04  302
  1699  7.5191e-06  4.8704e-07  1.6246e-07  7.2200e-06  9.8422e-09  1.6684e-08  0:00:03  301
  1700  7.4935e-06  4.8520e-07  1.6171e-07  7.1954e-06  9.8047e-09  1.6636e-08  0:00:03  300
  1701  7.4678e-06  4.8336e-07  1.6096e-07  7.1707e-06  9.7672e-09  1.6588e-08  0:00:02  299
  1702  7.4419e-06  4.8149e-07  1.6021e-07  7.1458e-06  9.7295e-09  1.6541e-08  0:00:02  298
  1703  7.4159e-06  4.7961e-07  1.5947e-07  7.1208e-06  9.6916e-09  1.6493e-08  0:00:01  297

  iter  continuity  x-velocity  y-velocity      energy           k     epsilon     time/iter
  1704  7.3897e-06  4.7771e-07  1.5873e-07  7.0957e-06  9.6537e-09  1.6447e-08  0:00:01  296
  1705  7.3634e-06  4.7581e-07  1.5800e-07  7.0704e-06  9.6157e-09  1.6400e-08  0:01:00  295
  1706  7.3370e-06  4.7388e-07  1.5726e-07  7.0450e-06  9.5778e-09  1.6354e-08  0:00:48  294
  1707  7.3104e-06  4.7195e-07  1.5654e-07  7.0195e-06  9.5399e-09  1.6308e-08  0:00:38  293
  1708  7.2838e-06  4.7001e-07  1.5582e-07  6.9939e-06  9.5021e-09  1.6262e-08  0:00:30  292
  1709  7.2570e-06  4.6806e-07  1.5511e-07  6.9682e-06  9.4643e-09  1.6217e-08  0:00:24  291
  1710  7.2302e-06  4.6610e-07  1.5440e-07  6.9425e-06  9.4266e-09  1.6171e-08  0:00:19  290
  1711  7.2033e-06  4.6414e-07  1.5371e-07  6.9166e-06  9.3891e-09  1.6126e-08  0:00:15  289
  1712  7.1763e-06  4.6217e-07  1.5301e-07  6.8907e-06  9.3517e-09  1.6081e-08  0:00:12  288
  1713  7.1492e-06  4.6020e-07  1.5233e-07  6.8647e-06  9.3145e-09  1.6037e-08  0:00:10  287
  1714  7.1222e-06  4.5823e-07  1.5164e-07  6.8387e-06  9.2774e-09  1.5992e-08  0:00:08  286

  iter  continuity  x-velocity  y-velocity      energy           k     epsilon     time/iter
  1715  7.0951e-06  4.5626e-07  1.5098e-07  6.8127e-06  9.2405e-09  1.5947e-08  0:00:06  285
  1716  7.0679e-06  4.5429e-07  1.5032e-07  6.7867e-06  9.2038e-09  1.5902e-08  0:00:05  284
  1717  7.0408e-06  4.5232e-07  1.4968e-07  6.7606e-06  9.1672e-09  1.5860e-08  0:00:04  283
  1718  7.0137e-06  4.5035e-07  1.4903e-07  6.7345e-06  9.1309e-09  1.5819e-08  0:00:03  282
  1719  6.9866e-06  4.4838e-07  1.4841e-07  6.7085e-06  9.0948e-09  1.5777e-08  0:00:03  281
  1720  6.9595e-06  4.4641e-07  1.4778e-07  6.6825e-06  9.0589e-09  1.5735e-08  0:00:02  280
  1721  6.9324e-06  4.4445e-07  1.4718e-07  6.6565e-06  9.0233e-09  1.5693e-08  0:00:02  279
  1722  6.9054e-06  4.4249e-07  1.4657e-07  6.6306e-06  8.9879e-09  1.5651e-08  0:00:01  278
  1723  6.8785e-06  4.4053e-07  1.4599e-07  6.6047e-06  8.9528e-09  1.5608e-08  0:00:01  277
  1724  6.8516e-06  4.3856e-07  1.4540e-07  6.5789e-06  8.9180e-09  1.5565e-08  0:00:01  276
  1725  6.8249e-06  4.3661e-07  1.4484e-07  6.5532e-06  8.8835e-09  1.5522e-08  0:00:56  275

  iter  continuity  x-velocity  y-velocity      energy           k     epsilon     time/iter
  1726  6.7982e-06  4.3466e-07  1.4428e-07  6.5276e-06  8.8492e-09  1.5478e-08  0:00:44  274
  1727  6.7716e-06  4.3271e-07  1.4374e-07  6.5021e-06  8.8153e-09  1.5434e-08  0:00:35  273
  1728  6.7452e-06  4.3076e-07  1.4319e-07  6.4767e-06  8.7817e-09  1.5389e-08  0:00:28  272
  1729  6.7189e-06  4.2883e-07  1.4267e-07  6.4514e-06  8.7485e-09  1.5345e-08  0:00:22  271
  1730  6.6927e-06  4.2690e-07  1.4215e-07  6.4263e-06  8.7157e-09  1.5299e-08  0:00:18  270
  1731  6.6667e-06  4.2498e-07  1.4165e-07  6.4013e-06  8.6834e-09  1.5254e-08  0:00:14  269
  1732  6.6408e-06  4.2306e-07  1.4115e-07  6.3765e-06  8.6514e-09  1.5207e-08  0:00:11  268
  1733  6.6151e-06  4.2115e-07  1.4067e-07  6.3518e-06  8.6197e-09  1.5161e-08  0:00:09  267
  1734  6.5896e-06  4.1925e-07  1.4019e-07  6.3273e-06  8.5884e-09  1.5113e-08  0:00:07  266
  1735  6.5643e-06  4.1736e-07  1.3973e-07  6.3030e-06  8.5574e-09  1.5066e-08  0:00:06  265
  1736  6.5391e-06  4.1548e-07  1.3927e-07  6.2788e-06  8.5268e-09  1.5018e-08  0:00:05  264

  iter  continuity  x-velocity  y-velocity      energy           k     epsilon     time/iter
  1737  6.5142e-06  4.1362e-07  1.3883e-07  6.2549e-06  8.4966e-09  1.4969e-08  0:00:04  263
  1738  6.4894e-06  4.1176e-07  1.3838e-07  6.2311e-06  8.4667e-09  1.4920e-08  0:00:03  262
  1739  6.4649e-06  4.0992e-07  1.3796e-07  6.2075e-06  8.4371e-09  1.4871e-08  0:00:02  261
  1740  6.4406e-06  4.0808e-07  1.3754e-07  6.1842e-06  8.4080e-09  1.4821e-08  0:00:02  260
  1741  6.4165e-06  4.0627e-07  1.3713e-07  6.1610e-06  8.3791e-09  1.4771e-08  0:00:01  259
  1742  6.3926e-06  4.0446e-07  1.3673e-07  6.1381e-06  8.3506e-09  1.4720e-08  0:00:01  258
  1743  6.3689e-06  4.0268e-07  1.3634e-07  6.1154e-06  8.3224e-09  1.4669e-08  0:00:01  257
  1744  6.3455e-06  4.0090e-07  1.3595e-07  6.0929e-06  8.2946e-09  1.4617e-08  0:00:52  256
  1745  6.3224e-06  3.9914e-07  1.3557e-07  6.0707e-06  8.2671e-09  1.4565e-08  0:00:41  255
  1746  6.2994e-06  3.9739e-07  1.3519e-07  6.0487e-06  8.2399e-09  1.4513e-08  0:00:33  254
  1747  6.2767e-06  3.9567e-07  1.3483e-07  6.0269e-06  8.2130e-09  1.4460e-08  0:00:26  253

  iter  continuity  x-velocity  y-velocity      energy           k     epsilon     time/iter
  1748  6.2543e-06  3.9395e-07  1.3447e-07  6.0053e-06  8.1864e-09  1.4407e-08  0:00:21  252
  1749  6.2320e-06  3.9226e-07  1.3412e-07  5.9840e-06  8.1601e-09  1.4353e-08  0:00:17  251
  1750  6.2101e-06  3.9057e-07  1.3376e-07  5.9629e-06  8.1342e-09  1.4299e-08  0:00:13  250
  1751  6.1883e-06  3.8891e-07  1.3343e-07  5.9420e-06  8.1085e-09  1.4245e-08  0:00:11  249
  1752  6.1668e-06  3.8726e-07  1.3308e-07  5.9213e-06  8.0830e-09  1.4191e-08  0:00:08  248
  1753  6.1456e-06  3.8563e-07  1.3275e-07  5.9009e-06  8.0579e-09  1.4137e-08  0:00:07  247
  1754  6.1245e-06  3.8402e-07  1.3241e-07  5.8807e-06  8.0329e-09  1.4082e-08  0:00:05  246
  1755  6.1037e-06  3.8242e-07  1.3209e-07  5.8608e-06  8.0083e-09  1.4028e-08  0:00:04  245
  1756  6.0832e-06  3.8084e-07  1.3176e-07  5.8410e-06  7.9838e-09  1.3973e-08  0:00:03  244
  1757  6.0628e-06  3.7928e-07  1.3144e-07  5.8215e-06  7.9596e-09  1.3918e-08  0:00:03  243
[...]
  1869  4.1722e-06  2.4233e-07  9.0094e-08  4.0061e-06  5.4745e-09  9.5206e-09  0:00:06  131
  1870  4.1581e-06  2.4132e-07  8.9832e-08  3.9926e-06  5.4572e-09  9.4858e-09  0:00:04  130
  1871  4.1441e-06  2.4034e-07  8.9582e-08  3.9791e-06  5.4399e-09  9.4510e-09  0:00:04  129
  1872  4.1302e-06  2.3935e-07  8.9323e-08  3.9658e-06  5.4228e-09  9.4162e-09  0:00:03  128
  1873  4.1164e-06  2.3838e-07  8.9075e-08  3.9526e-06  5.4058e-09  9.3814e-09  0:00:02  127
  1874  4.1027e-06  2.3741e-07  8.8818e-08  3.9394e-06  5.3888e-09  9.3467e-09  0:00:02  126
  1875  4.0891e-06  2.3646e-07  8.8572e-08  3.9264e-06  5.3720e-09  9.3120e-09  0:00:01  125
  1876  4.0757e-06  2.3551e-07  8.8316e-08  3.9135e-06  5.3552e-09  9.2773e-09  0:00:01  124
  1877  4.0623e-06  2.3457e-07  8.8070e-08  3.9006e-06  5.3385e-09  9.2427e-09  0:00:01  123
  1878  4.0490e-06  2.3364e-07  8.7815e-08  3.8879e-06  5.3219e-09  9.2090e-09  0:00:01  122
  1879  4.0359e-06  2.3272e-07  8.7570e-08  3.8752e-06  5.3054e-09  9.1754e-09  0:00:25  121

  iter  continuity  x-velocity  y-velocity      energy           k     epsilon     time/iter
  1880  4.0228e-06  2.3180e-07  8.7314e-08  3.8627e-06  5.2889e-09  9.1420e-09  0:00:20  120
  1881  4.0098e-06  2.3090e-07  8.7069e-08  3.8502e-06  5.2725e-09  9.1087e-09  0:00:16  119
  1882  3.9969e-06  2.3000e-07  8.6813e-08  3.8378e-06  5.2562e-09  9.0755e-09  0:00:12  118
  1883  3.9840e-06  2.2911e-07  8.6567e-08  3.8255e-06  5.2399e-09  9.0425e-09  0:00:10  117
  1884  3.9713e-06  2.2822e-07  8.6310e-08  3.8133e-06  5.2237e-09  9.0095e-09  0:00:08  116
  1885  3.9586e-06  2.2735e-07  8.6063e-08  3.8011e-06  5.2075e-09  8.9767e-09  0:00:06  115
  1886  3.9461e-06  2.2647e-07  8.5805e-08  3.7890e-06  5.1913e-09  8.9440e-09  0:00:05  114
  1887  3.9335e-06  2.2561e-07  8.5557e-08  3.7770e-06  5.1752e-09  8.9115e-09  0:00:04  113
  1888  3.9211e-06  2.2476e-07  8.5297e-08  3.7651e-06  5.1591e-09  8.8791e-09  0:00:03  112
  1889  3.9087e-06  2.2391e-07  8.5047e-08  3.7532e-06  5.1431e-09  8.8469e-09  0:00:02  111
  1890  3.8964e-06  2.2306e-07  8.4786e-08  3.7414e-06  5.1271e-09  8.8148e-09  0:00:02  110

  iter  continuity  x-velocity  y-velocity      energy           k     epsilon     time/iter
  1891  3.8842e-06  2.2223e-07  8.4533e-08  3.7296e-06  5.1111e-09  8.7830e-09  0:00:02  109
  1892  3.8720e-06  2.2139e-07  8.4270e-08  3.7179e-06  5.0951e-09  8.7513e-09  0:00:01  108
  1893  3.8598e-06  2.2057e-07  8.4015e-08  3.7062e-06  5.0791e-09  8.7198e-09  0:00:01  107
  1894  3.8478e-06  2.1975e-07  8.3749e-08  3.6946e-06  5.0632e-09  8.6884e-09  0:00:01  106
  1895  3.8357e-06  2.1893e-07  8.3492e-08  3.6831e-06  5.0472e-09  8.6573e-09  0:00:01  105
  1896  3.8237e-06  2.1812e-07  8.3224e-08  3.6716e-06  5.0312e-09  8.6263e-09  0:00:21  104
  1897  3.8118e-06  2.1732e-07  8.2964e-08  3.6601e-06  5.0153e-09  8.5956e-09  0:00:17  103
  1898  3.7999e-06  2.1651e-07  8.2693e-08  3.6487e-06  4.9994e-09  8.5651e-09  0:00:13  102
  1899  3.7880e-06  2.1572e-07  8.2431e-08  3.6373e-06  4.9834e-09  8.5347e-09  0:00:11  101
  1900  3.7762e-06  2.1492e-07  8.2158e-08  3.6259e-06  4.9675e-09  8.5046e-09  0:00:08  100
  1901  3.7644e-06  2.1413e-07  8.1893e-08  3.6146e-06  4.9515e-09  8.4747e-09  0:00:07   99

  iter  continuity  x-velocity  y-velocity      energy           k     epsilon     time/iter
  1902  3.7526e-06  2.1334e-07  8.1617e-08  3.6033e-06  4.9356e-09  8.4449e-09  0:00:05   98
  1903  3.7408e-06  2.1256e-07  8.1350e-08  3.5920e-06  4.9196e-09  8.4154e-09  0:00:04   97
  1904  3.7291e-06  2.1178e-07  8.1072e-08  3.5807e-06  4.9036e-09  8.3861e-09  0:00:03   96
  1905  3.7174e-06  2.1100e-07  8.0803e-08  3.5695e-06  4.8877e-09  8.3570e-09  0:00:03   95
  1906  3.7057e-06  2.1023e-07  8.0522e-08  3.5582e-06  4.8717e-09  8.3281e-09  0:00:02   94
  1907  3.6940e-06  2.0946e-07  8.0250e-08  3.5470e-06  4.8557e-09  8.2994e-09  0:00:02   93
  1908  3.6824e-06  2.0868e-07  7.9968e-08  3.5358e-06  4.8397e-09  8.2710e-09  0:00:01   92
  1909  3.6707e-06  2.0792e-07  7.9694e-08  3.5247e-06  4.8237e-09  8.2427e-09  0:00:01   91
  1910  3.6591e-06  2.0715e-07  7.9409e-08  3.5135e-06  4.8077e-09  8.2147e-09  0:00:01   90
  1911  3.6475e-06  2.0638e-07  7.9134e-08  3.5023e-06  4.7917e-09  8.1868e-09  0:00:01   89
  1912  3.6358e-06  2.0562e-07  7.8848e-08  3.4912e-06  4.7756e-09  8.1592e-09  0:00:01   88

  iter  continuity  x-velocity  y-velocity      energy           k     epsilon     time/iter
  1913  3.6242e-06  2.0486e-07  7.8570e-08  3.4800e-06  4.7596e-09  8.1317e-09  0:00:00   87
  1914  3.6126e-06  2.0409e-07  7.8283e-08  3.4689e-06  4.7436e-09  8.1045e-09  0:00:00   86
  1915  3.6010e-06  2.0334e-07  7.8004e-08  3.4577e-06  4.7275e-09  8.0774e-09  0:00:17   85
  1916  3.5894e-06  2.0258e-07  7.7715e-08  3.4466e-06  4.7115e-09  8.0506e-09  0:00:14   84
  1917  3.5778e-06  2.0182e-07  7.7436e-08  3.4354e-06  4.6954e-09  8.0239e-09  0:00:11   83
  1918  3.5662e-06  2.0106e-07  7.7146e-08  3.4243e-06  4.6794e-09  7.9974e-09  0:00:09   82
  1919  3.5546e-06  2.0031e-07  7.6866e-08  3.4132e-06  4.6633e-09  7.9710e-09  0:00:07   81
  1920  3.5430e-06  1.9955e-07  7.6576e-08  3.4020e-06  4.6473e-09  7.9449e-09  0:00:05   80
  1921  3.5314e-06  1.9879e-07  7.6295e-08  3.3909e-06  4.6312e-09  7.9189e-09  0:00:04   79
  1922  3.5198e-06  1.9803e-07  7.6005e-08  3.3797e-06  4.6152e-09  7.8931e-09  0:00:03   78
  1923  3.5082e-06  1.9728e-07  7.5725e-08  3.3686e-06  4.5991e-09  7.8674e-09  0:00:03   77

  iter  continuity  x-velocity  y-velocity      energy           k     epsilon     time/iter
  1924  3.4966e-06  1.9652e-07  7.5435e-08  3.3574e-06  4.5831e-09  7.8419e-09  0:00:02   76
  1925  3.4850e-06  1.9577e-07  7.5155e-08  3.3463e-06  4.5671e-09  7.8166e-09  0:00:02   75
  1926  3.4733e-06  1.9501e-07  7.4866e-08  3.3351e-06  4.5511e-09  7.7914e-09  0:00:01   74
  1927  3.4617e-06  1.9426e-07  7.4587e-08  3.3240e-06  4.5351e-09  7.7663e-09  0:00:01   73
  1928  3.4501e-06  1.9350e-07  7.4299e-08  3.3128e-06  4.5192e-09  7.7414e-09  0:00:01   72
  1929  3.4385e-06  1.9275e-07  7.4021e-08  3.3017e-06  4.5032e-09  7.7166e-09  0:00:01   71
  1930  3.4269e-06  1.9200e-07  7.3734e-08  3.2905e-06  4.4873e-09  7.6920e-09  0:00:00   70
  1931  3.4153e-06  1.9125e-07  7.3459e-08  3.2794e-06  4.4715e-09  7.6674e-09  0:00:00   69
  1932  3.4037e-06  1.9049e-07  7.3174e-08  3.2682e-06  4.4556e-09  7.6430e-09  0:00:00   68
  1933  3.3921e-06  1.8974e-07  7.2900e-08  3.2571e-06  4.4398e-09  7.6187e-09  0:00:00   67
  1934  3.3805e-06  1.8898e-07  7.2617e-08  3.2460e-06  4.4240e-09  7.5946e-09  0:00:00   66

  iter  continuity  x-velocity  y-velocity      energy           k     epsilon     time/iter
  1935  3.3689e-06  1.8823e-07  7.2345e-08  3.2348e-06  4.4083e-09  7.5705e-09  0:00:13   65
  1936  3.3573e-06  1.8748e-07  7.2065e-08  3.2237e-06  4.3926e-09  7.5465e-09  0:00:10   64
  1937  3.3457e-06  1.8673e-07  7.1796e-08  3.2126e-06  4.3769e-09  7.5226e-09  0:00:08   63
  1938  3.3341e-06  1.8597e-07  7.1519e-08  3.2015e-06  4.3613e-09  7.4988e-09  0:00:06   62
  1939  3.3226e-06  1.8523e-07  7.1253e-08  3.1904e-06  4.3458e-09  7.4751e-09  0:00:05   61
  1940  3.3110e-06  1.8447e-07  7.0979e-08  3.1793e-06  4.3303e-09  7.4515e-09  0:00:04   60
  1941  3.2995e-06  1.8373e-07  7.0716e-08  3.1682e-06  4.3148e-09  7.4279e-09  0:00:03   59
  1942  3.2880e-06  1.8298e-07  7.0445e-08  3.1572e-06  4.2994e-09  7.4044e-09  0:00:02   58
  1943  3.2765e-06  1.8223e-07  7.0186e-08  3.1461e-06  4.2841e-09  7.3810e-09  0:00:02   57
  1944  3.2650e-06  1.8148e-07  6.9919e-08  3.1351e-06  4.2688e-09  7.3576e-09  0:00:02   56
  1945  3.2536e-06  1.8074e-07  6.9663e-08  3.1241e-06  4.2536e-09  7.3343e-09  0:00:01   55

  iter  continuity  x-velocity  y-velocity      energy           k     epsilon     time/iter
  1946  3.2421e-06  1.8000e-07  6.9400e-08  3.1131e-06  4.2385e-09  7.3111e-09  0:00:01   54
  1947  3.2307e-06  1.7926e-07  6.9148e-08  3.1022e-06  4.2234e-09  7.2879e-09  0:00:01   53
  1948  3.2193e-06  1.7851e-07  6.8889e-08  3.0912e-06  4.2084e-09  7.2648e-09  0:00:01   52
  1949  3.2080e-06  1.7778e-07  6.8642e-08  3.0803e-06  4.1935e-09  7.2417e-09  0:00:00   51
  1950  3.1967e-06  1.7704e-07  6.8386e-08  3.0694e-06  4.1787e-09  7.2186e-09  0:00:00   50
  1951  3.1854e-06  1.7631e-07  6.8143e-08  3.0586e-06  4.1639e-09  7.1956e-09  0:00:10   49
  1952  3.1741e-06  1.7557e-07  6.7892e-08  3.0478e-06  4.1492e-09  7.1726e-09  0:00:08   48
  1953  3.1629e-06  1.7485e-07  6.7653e-08  3.0370e-06  4.1346e-09  7.1496e-09  0:00:06   47
  1954  3.1517e-06  1.7411e-07  6.7407e-08  3.0262e-06  4.1200e-09  7.1267e-09  0:00:05   46
  1955  3.1405e-06  1.7339e-07  6.7172e-08  3.0155e-06  4.1056e-09  7.1038e-09  0:00:04   45
  1956  3.1294e-06  1.7267e-07  6.6930e-08  3.0048e-06  4.0912e-09  7.0810e-09  0:00:03   44

  iter  continuity  x-velocity  y-velocity      energy           k     epsilon     time/iter
  1957  3.1183e-06  1.7195e-07  6.6699e-08  2.9942e-06  4.0769e-09  7.0585e-09  0:00:02   43
  1958  3.1073e-06  1.7123e-07  6.6462e-08  2.9836e-06  4.0627e-09  7.0359e-09  0:00:02   42
  1959  3.0963e-06  1.7052e-07  6.6236e-08  2.9730e-06  4.0486e-09  7.0134e-09  0:00:01   41
  1960  3.0853e-06  1.6980e-07  6.6002e-08  2.9625e-06  4.0346e-09  6.9908e-09  0:00:01   40
  1961  3.0744e-06  1.6910e-07  6.5780e-08  2.9521e-06  4.0206e-09  6.9682e-09  0:00:01   39
  1962  3.0636e-06  1.6839e-07  6.5551e-08  2.9416e-06  4.0068e-09  6.9456e-09  0:00:01   38
  1963  3.0528e-06  1.6769e-07  6.5334e-08  2.9313e-06  3.9930e-09  6.9230e-09  0:00:01   37
  1964  3.0420e-06  1.6699e-07  6.5109e-08  2.9209e-06  3.9793e-09  6.9004e-09  0:00:00   36
  1965  3.0313e-06  1.6630e-07  6.4895e-08  2.9107e-06  3.9657e-09  6.8777e-09  0:00:00   35
  1966  3.0207e-06  1.6561e-07  6.4675e-08  2.9004e-06  3.9522e-09  6.8551e-09  0:00:00   34
  1967  3.0101e-06  1.6492e-07  6.4465e-08  2.8903e-06  3.9388e-09  6.8324e-09  0:00:00   33

  iter  continuity  x-velocity  y-velocity      energy           k     epsilon     time/iter
  1968  2.9995e-06  1.6424e-07  6.4248e-08  2.8801e-06  3.9255e-09  6.8097e-09  0:00:00   32
  1969  2.9890e-06  1.6356e-07  6.4043e-08  2.8701e-06  3.9122e-09  6.7870e-09  0:00:00   31
  1970  2.9786e-06  1.6288e-07  6.3830e-08  2.8601e-06  3.8990e-09  6.7643e-09  0:00:00   30
  1971  2.9682e-06  1.6222e-07  6.3628e-08  2.8501e-06  3.8859e-09  6.7416e-09  0:00:00   29
  1972  2.9579e-06  1.6155e-07  6.3418e-08  2.8402e-06  3.8729e-09  6.7188e-09  0:00:06   28
  1973  2.9476e-06  1.6089e-07  6.3219e-08  2.8303e-06  3.8600e-09  6.6961e-09  0:00:04   27
  1974  2.9374e-06  1.6023e-07  6.3013e-08  2.8205e-06  3.8472e-09  6.6733e-09  0:00:03   26
  1975  2.9273e-06  1.5958e-07  6.2818e-08  2.8108e-06  3.8344e-09  6.6505e-09  0:00:03   25
  1976  2.9172e-06  1.5893e-07  1.8896e-07  2.8011e-06  3.8219e-09  6.6500e-09  0:00:02   24
  1977  2.9106e-06  1.6634e-07  6.7738e-08  2.7948e-06  3.8092e-09  6.6498e-09  0:00:02   23
  1978  2.8982e-06  1.5966e-07  6.8185e-08  2.7828e-06  3.7965e-09  6.5853e-09  0:00:01   22

  iter  continuity  x-velocity  y-velocity      energy           k     epsilon     time/iter
  1979  2.8874e-06  1.5717e-07  6.5240e-08  2.7725e-06  3.7840e-09  6.5396e-09  0:00:01   21
  1980  2.8775e-06  1.5650e-07  6.2477e-08  2.7630e-06  3.7717e-09  6.5330e-09  0:00:01   20
  1981  2.8677e-06  1.5586e-07  6.1726e-08  2.7535e-06  3.7594e-09  6.5158e-09  0:00:01   19
  1982  2.8579e-06  1.5517e-07  6.1443e-08  2.7442e-06  3.7472e-09  6.4901e-09  0:00:00   18
  1983  2.8482e-06  1.5451e-07  6.1244e-08  2.7349e-06  3.7350e-09  6.4647e-09  0:00:00   17
  1984  2.8386e-06  1.5389e-07  6.1058e-08  2.7256e-06  3.7229e-09  6.4435e-09  0:00:00   16
  1985  2.8290e-06  1.5330e-07  6.0884e-08  2.7164e-06  3.7108e-09  6.4233e-09  0:00:00   15
  1986  2.8195e-06  1.5270e-07  6.0698e-08  2.7073e-06  3.6989e-09  6.4030e-09  0:00:00   14
  1987  2.8101e-06  1.5211e-07  6.0518e-08  2.6982e-06  3.6869e-09  6.3816e-09  0:00:00   13
  1988  2.8007e-06  1.5150e-07  6.0327e-08  2.6892e-06  3.6751e-09  6.3591e-09  0:00:00   12
  1989  2.7913e-06  1.5090e-07  6.0145e-08  2.6802e-06  3.6632e-09  6.3361e-09  0:00:00   11

  iter  continuity  x-velocity  y-velocity      energy           k     epsilon     time/iter
  1990  2.7820e-06  1.5031e-07  5.9954e-08  2.6713e-06  3.6515e-09  6.3130e-09  0:00:00   10
  1991  2.7728e-06  1.4973e-07  5.9774e-08  2.6625e-06  3.6398e-09  6.2900e-09  0:00:02    9
  1992  2.7636e-06  1.4915e-07  5.9586e-08  2.6536e-06  3.6281e-09  6.2674e-09  0:00:01    8
  1993  2.7545e-06  1.4858e-07  5.9408e-08  2.6449e-06  3.6165e-09  6.2451e-09  0:00:01    7
  1994  2.7454e-06  1.4801e-07  5.9221e-08  2.6361e-06  3.6049e-09  6.2231e-09  0:00:01    6
  1995  2.7364e-06  1.4745e-07  5.9044e-08  2.6275e-06  3.5934e-09  6.2015e-09  0:00:00    5
  1996  2.7274e-06  1.4688e-07  5.8858e-08  2.6188e-06  3.5819e-09  6.1799e-09  0:00:00    4
  1997  2.7184e-06  1.4633e-07  5.8681e-08  2.6103e-06  3.5705e-09  6.1585e-09  0:00:00    3
  1998  2.7095e-06  1.4577e-07  5.8496e-08  2.6017e-06  3.5591e-09  6.1371e-09  0:00:00    2
  1999  2.7007e-06  1.4523e-07  5.8319e-08  2.5932e-06  3.5477e-09  6.1157e-09  0:00:00    1
  2000  2.6919e-06  1.4468e-07  5.8133e-08  2.5848e-06  3.5364e-09  6.0942e-09  0:00:00    0
Writing "| gzip -2cf > SolutionMonitor.gz"...
Writing temporary file C:\\Users\\lockb\\AppData\\Local\\Temp\\flntgz-113922 ...
Done.

Writing data to W:\\AAE412\\Project\\Git\\ANSYS_Files\\NozzleA\\NozzleA_files\\dp0\\FFF-4\\Fluent\\FFF-4.1.ip ...
	x-coord
	y-coord
	pressure
	x-velocity
	y-velocity
	temperature
	k
	epsilon
Done.
Writing "| gzip -2cf > FFF-4.1-11.cas.gz"...
Writing temporary file C:\\Users\\lockb\\AppData\\Local\\Temp\\flntgz-113923 ...
   23100 quadrilateral cells, zone  3, binary.
   23100 cell partition ids, zone  3, 4 partitions, binary.
   45509 2D interior faces, zone  1, binary.
     240 2D interior faces, zone  2, binary.
     100 2D velocity-inlet faces, zone  6, binary.
     251 2D pressure-far-field faces, zone  7, binary.
     300 2D axis faces, zone  8, binary.
      40 2D pressure-inlet faces, zone  9, binary.
     211 2D wall faces, zone 10, binary.
   23552 nodes, binary.
   23552 node flags, binary.
Done.

Writing "| gzip -2cf > FFF-4.1-11-02000.dat.gz"...
Writing temporary file C:\\Users\\lockb\\AppData\\Local\\Temp\\flntgz-113924 ...
Done.


Performance Timer for 1000 iterations on 4 compute nodes
  Average wall-clock time per iteration:              0.025 sec
  Global reductions per iteration:                      177 ops
  Global reductions time per iteration:               0.000 sec (0.0%)
  Message count per iteration:                         2196 messages
  Data transfer per iteration:                        0.722 MB
  LE solves per iteration:                                3 solves
  LE wall-clock time per iteration:                   0.014 sec (56.3%)
  LE global solves per iteration:                         5 solves
  LE global wall-clock time per iteration:            0.000 sec (0.3%)
  LE global matrix maximum size:                        35
  AMG cycles per iteration:                           5.000 cycles
  Relaxation sweeps per iteration:                      316 sweeps
  Relaxation exchanges per iteration:                     0 exchanges
  LE early protections (stall) per iteration:           0.000 times
  LE early protections (divergence) per iteration:      0.000 times

  Total wall-clock time:                             25.350 sec


Transcript file has been opened in append mode. Time stamp=Mon Dec  2 21:12:09 2019.

Build Time: Apr 16 2019 10:49:06 
Executable Path: C:/PROGRA~1/ANSYSI~1/v194/fluent/ntbin/win64/fluent.exe

-------------------------------------------------------------------------------
ID    Hostname        Core  O.S.         PID   Vendor                   
-------------------------------------------------------------------------------
n3    X-ARMS2106PC44  4/8  Windows-x64  4852  Intel(R) Xeon(R) E3-1240 
n2    X-ARMS2106PC44  3/8  Windows-x64  3392  Intel(R) Xeon(R) E3-1240 
n1    X-ARMS2106PC44  2/8  Windows-x64  7076  Intel(R) Xeon(R) E3-1240 
n0*   X-ARMS2106PC44  1/8  Windows-x64  7000  Intel(R) Xeon(R) E3-1240 
host  X-ARMS2106PC44       Windows-x64  9544  Intel(R) Xeon(R) E3-1240 

MPI Option Selected: ibmmpi
Selected system interconnect: default
-------------------------------------------------------------------------------
Warning: Ignoring WB preference save-post-processing-images
Multicore SMT processors detected. Processor affinity set!
Reading "W:\AAE412\Project\Git\ANSYS_Files\NozzleA\Run_In_Linux\NozzleA_Course.2.cas"...
Buffering for file scan...



   59000 quadrilateral cells, zone  3, binary.
Warning: reading 16 partition grid onto 4 compute node machine;
         will auto partition.
   59000 cell partition ids, zone  3, 16 partitions, binary.
  116410 2D interior faces, zone  1, binary.
     240 2D interior faces, zone  2, binary.
     100 2D velocity-inlet faces, zone  6, binary.
     250 2D pressure-far-field faces, zone  7, binary.
    1200 2D axis faces, zone  8, binary.
      40 2D pressure-inlet faces, zone  9, binary.
    1110 2D wall faces, zone 10, binary.
   60351 nodes, binary.
60351 node flags, binary.

Building...
     mesh
	auto partitioning mesh by Metis (fast),
	distributing mesh
		parts....,
		faces....,
		nodes....,
		cells....,
        bandwidth reduction using Reverse Cuthill-McKee: 14832/101 = 146.851
     materials,
     interface,
     domains,
	mixture
     zones,
	nozzlewall
	axis
	surface_body
	interior-surface_body
	flowinlet
	ambientinlet
	farfield
	solid-surface_body
     parallel,
Done.

Preparing mesh for display...
Done.

Writing Settings file "W:\AAE412\Project\Git\ANSYS_Files\NozzleA\NozzleA_AfterLinux_files\dp0\FFF-4\Fluent\NozzleA_Course.2.set"...
	writing rp variables ... Done.
	writing domain variables ... Done.
	writing solid-surface_body (type fluid) (mixture) ... Done.
	writing farfield (type pressure-far-field) (mixture) ... Done.
	writing ambientinlet (type velocity-inlet) (mixture) ... Done.
	writing flowinlet (type pressure-inlet) (mixture) ... Done.
	writing interior-surface_body (type interior) (mixture) ... Done.
	writing surface_body (type interior) (mixture) ... Done.
	writing axis (type axis) (mixture) ... Done.
	writing nozzlewall (type wall) (mixture) ... Done.
	writing zones map name-id ... Done.
Reading "W:\AAE412\Project\Git\ANSYS_Files\NozzleA\NozzleA_AfterLinux_files\dp0\FFF-4\Fluent\NozzleA_Course.2.dat"...


Parallel variables...
Done.
Writing data to W:\\AAE412\\Project\\Git\\ANSYS_Files\\NozzleA\\NozzleA_AfterLinux_files\\dp0\\FFF-4\\Fluent\\NozzleA_Course.2.ip ...
	x-coord
	y-coord
	pressure
	x-velocity
	y-velocity
	temperature
	k
	epsilon
Done.

Performance Timer for 0 iterations on 4 compute nodes
  Average wall-clock time per iteration:              0.000 sec
  Global reductions per iteration:                        0 ops
  Global reductions time per iteration:               0.000 sec (0.0%)
  Message count per iteration:                            0 messages
  Data transfer per iteration:                        0.000 MB
  LE solves per iteration:                                0 solves
  LE wall-clock time per iteration:                   0.000 sec (0.0%)
  LE global solves per iteration:                         0 solves
  LE global wall-clock time per iteration:            0.000 sec (0.0%)
  LE global matrix maximum size:                         0
  AMG cycles per iteration:                           0.000 cycles
  Relaxation sweeps per iteration:                        0 sweeps
  Relaxation exchanges per iteration:                     0 exchanges
  LE early protections (stall) per iteration:           0.000 times
  LE early protections (divergence) per iteration:      0.000 times

  Total wall-clock time:                              0.000 sec

